
     RDKit          2D

156167  0  0  0  0  0  0  0  0999 V2000
  -11.2199   -0.6323    0.0000 C   0  0  0  0  0  0  0  0  0  0  0  0
  -10.4098    0.6302    0.0000 C   0  0  0  0  0  0  0  0  0  0  0  0
   -8.9114    0.5599    0.0000 C   0  0  0  0  0  0  0  0  0  0  0  0
   -8.2232   -0.7729    0.0000 C   0  0  0  0  0  0  0  0  0  0  0  0
   -6.7248   -0.8432    0.0000 C   0  0  0  0  0  0  0  0  0  0  0  0
   -5.9147    0.4193    0.0000 C   0  0  0  0  0  0  0  0  0  0  0  0
   -4.4164    0.3490    0.0000 C   0  0  0  0  0  0  0  0  0  0  0  0
   -3.7281   -0.9838    0.0000 C   0  0  0  0  0  0  0  0  0  0  0  0
   -2.2297   -1.0541    0.0000 C   0  0  0  0  0  0  0  0  0  0  0  0
   -1.4197    0.2083    0.0000 C   0  0  0  0  0  0  0  0  0  0  0  0
    0.0787    0.1380    0.0000 C   0  0  0  0  0  0  0  0  0  0  0  0
    0.7670   -1.1947    0.0000 C   0  0  0  0  0  0  0  0  0  0  0  0
    2.2653   -1.2650    0.0000 C   0  0  0  0  0  0  0  0  0  0  0  0
    3.0754   -0.0026    0.0000 C   0  0  0  0  0  0  0  0  0  0  0  0
    4.5737   -0.0729    0.0000 C   0  0  0  0  0  0  0  0  0  0  0  0
    5.2620   -1.4057    0.0000 C   0  0  0  0  0  0  0  0  0  0  0  0
    6.7604   -1.4760    0.0000 C   0  0  0  0  0  0  0  0  0  0  0  0
    7.5704   -0.2135    0.0000 C   0  0  0  0  0  0  0  0  0  0  0  0
    9.0688   -0.2838    0.0000 C   0  0  0  0  0  0  0  0  0  0  0  0
    9.7571   -1.6166    0.0000 C   0  0  0  0  0  0  0  0  0  0  0  0
   11.2554   -1.6869    0.0000 C   0  0  0  0  0  0  0  0  0  0  0  0
   12.0655   -0.4244    0.0000 C   0  0  0  0  0  0  0  0  0  0  0  0
   13.5638   -0.4948    0.0000 C   0  0  0  0  0  0  0  0  0  0  0  0
   14.3739    0.7677    0.0000 C   0  0  0  0  0  0  0  0  0  0  0  0
   15.8722    0.6974    0.0000 C   0  0  0  0  0  0  0  0  0  0  0  0
   16.6823    1.9598    0.0000 C   0  0  0  0  0  0  0  0  0  0  0  0
   18.1807    1.8895    0.0000 C   0  0  0  0  0  0  0  0  0  0  0  0
   18.8690    0.5568    0.0000 C   0  0  0  0  0  0  0  0  0  0  0  0
   20.3673    0.4865    0.0000 C   0  0  0  0  0  0  0  0  0  0  0  0
   21.1774    1.7489    0.0000 N   0  0  0  0  0  4  0  0  0  0  0  0
   22.4398    0.9388    0.0000 C   0  0  0  0  0  0  0  0  0  0  0  0
   19.9149    2.5590    0.0000 C   0  0  0  0  0  0  0  0  0  0  0  0
   21.9874    3.0114    0.0000 C   0  0  0  0  0  0  0  0  0  0  0  0
   18.0589   -0.7057    0.0000 C   0  0  0  0  0  0  0  0  0  0  0  0
   16.5605   -0.6354    0.0000 C   0  0  0  0  0  0  0  0  0  0  0  0
   11.3772    0.9083    0.0000 C   0  0  0  0  0  0  0  0  0  0  0  0
    9.8788    0.9786    0.0000 C   0  0  0  0  0  0  0  0  0  0  0  0
    9.1906    2.3114    0.0000 C   0  0  0  0  0  0  0  0  0  0  0  0
   10.0006    3.5738    0.0000 C   0  0  0  0  0  0  0  0  0  0  0  0
    9.3123    4.9066    0.0000 C   0  0  0  0  0  0  0  0  0  0  0  0
    7.8140    4.9769    0.0000 N   0  0  0  0  0  4  0  0  0  0  0  0
    7.8843    6.4753    0.0000 C   0  0  0  0  0  0  0  0  0  0  0  0
    7.7437    3.4786    0.0000 C   0  0  0  0  0  0  0  0  0  0  0  0
    6.3156    5.0472    0.0000 C   0  0  0  0  0  0  0  0  0  0  0  0
   11.4990    3.5035    0.0000 C   0  0  0  0  0  0  0  0  0  0  0  0
   12.1873    2.1708    0.0000 C   0  0  0  0  0  0  0  0  0  0  0  0
    8.9470   -2.8791    0.0000 C   0  0  0  0  0  0  0  0  0  0  0  0
    7.4486   -2.8087    0.0000 C   0  0  0  0  0  0  0  0  0  0  0  0
    6.6386   -4.0712    0.0000 C   0  0  0  0  0  0  0  0  0  0  0  0
    7.3269   -5.4040    0.0000 C   0  0  0  0  0  0  0  0  0  0  0  0
    6.5168   -6.6664    0.0000 C   0  0  0  0  0  0  0  0  0  0  0  0
    5.0185   -6.5961    0.0000 N   0  0  0  0  0  4  0  0  0  0  0  0
    4.9481   -8.0945    0.0000 C   0  0  0  0  0  0  0  0  0  0  0  0
    5.0888   -5.0978    0.0000 C   0  0  0  0  0  0  0  0  0  0  0  0
    3.5201   -6.5258    0.0000 C   0  0  0  0  0  0  0  0  0  0  0  0
    8.8252   -5.4743    0.0000 C   0  0  0  0  0  0  0  0  0  0  0  0
    9.6353   -4.2118    0.0000 C   0  0  0  0  0  0  0  0  0  0  0  0
    6.8821    1.1192    0.0000 C   0  0  0  0  0  0  0  0  0  0  0  0
    5.3838    1.1896    0.0000 C   0  0  0  0  0  0  0  0  0  0  0  0
    4.6955    2.5223    0.0000 C   0  0  0  0  0  0  0  0  0  0  0  0
    5.5056    3.7848    0.0000 C   0  0  0  0  0  0  0  0  0  0  0  0
    4.8173    5.1175    0.0000 C   0  0  0  0  0  0  0  0  0  0  0  0
    3.3189    5.1878    0.0000 N   0  0  0  0  0  4  0  0  0  0  0  0
    3.3892    6.6862    0.0000 C   0  0  0  0  0  0  0  0  0  0  0  0
    3.2486    3.6895    0.0000 C   0  0  0  0  0  0  0  0  0  0  0  0
    1.8206    5.2582    0.0000 C   0  0  0  0  0  0  0  0  0  0  0  0
    7.0039    3.7145    0.0000 C   0  0  0  0  0  0  0  0  0  0  0  0
    7.6922    2.3817    0.0000 C   0  0  0  0  0  0  0  0  0  0  0  0
    4.4519   -2.6681    0.0000 C   0  0  0  0  0  0  0  0  0  0  0  0
    2.9536   -2.5978    0.0000 C   0  0  0  0  0  0  0  0  0  0  0  0
    2.1435   -3.8603    0.0000 C   0  0  0  0  0  0  0  0  0  0  0  0
    2.8318   -5.1930    0.0000 C   0  0  0  0  0  0  0  0  0  0  0  0
    2.0217   -6.4555    0.0000 C   0  0  0  0  0  0  0  0  0  0  0  0
    0.5234   -6.3852    0.0000 N   0  0  0  0  0  4  0  0  0  0  0  0
    0.4531   -7.8835    0.0000 C   0  0  0  0  0  0  0  0  0  0  0  0
    0.5937   -4.8868    0.0000 C   0  0  0  0  0  0  0  0  0  0  0  0
   -0.9750   -6.3149    0.0000 C   0  0  0  0  0  0  0  0  0  0  0  0
    4.3302   -5.2633    0.0000 C   0  0  0  0  0  0  0  0  0  0  0  0
    5.1402   -4.0009    0.0000 C   0  0  0  0  0  0  0  0  0  0  0  0
    2.3871    1.3302    0.0000 C   0  0  0  0  0  0  0  0  0  0  0  0
    0.8887    1.4005    0.0000 C   0  0  0  0  0  0  0  0  0  0  0  0
    0.2005    2.7332    0.0000 C   0  0  0  0  0  0  0  0  0  0  0  0
    1.0105    3.9957    0.0000 C   0  0  0  0  0  0  0  0  0  0  0  0
    0.3222    5.3285    0.0000 C   0  0  0  0  0  0  0  0  0  0  0  0
   -1.1761    5.3988    0.0000 N   0  0  0  0  0  4  0  0  0  0  0  0
   -1.1058    6.8971    0.0000 C   0  0  0  0  0  0  0  0  0  0  0  0
   -1.2464    3.9004    0.0000 C   0  0  0  0  0  0  0  0  0  0  0  0
   -2.6745    5.4691    0.0000 C   0  0  0  0  0  0  0  0  0  0  0  0
    2.5089    3.9254    0.0000 C   0  0  0  0  0  0  0  0  0  0  0  0
    3.1972    2.5926    0.0000 C   0  0  0  0  0  0  0  0  0  0  0  0
   -0.0431   -2.4572    0.0000 C   0  0  0  0  0  0  0  0  0  0  0  0
   -1.5415   -2.3869    0.0000 C   0  0  0  0  0  0  0  0  0  0  0  0
   -2.3515   -3.6493    0.0000 C   0  0  0  0  0  0  0  0  0  0  0  0
   -1.6632   -4.9821    0.0000 C   0  0  0  0  0  0  0  0  0  0  0  0
   -2.4733   -6.2446    0.0000 C   0  0  0  0  0  0  0  0  0  0  0  0
   -3.9717   -6.1743    0.0000 N   0  0  0  0  0  4  0  0  0  0  0  0
   -4.0420   -7.6726    0.0000 C   0  0  0  0  0  0  0  0  0  0  0  0
   -3.9013   -4.6759    0.0000 C   0  0  0  0  0  0  0  0  0  0  0  0
   -5.4700   -6.1039    0.0000 C   0  0  0  0  0  0  0  0  0  0  0  0
   -0.1649   -5.0524    0.0000 C   0  0  0  0  0  0  0  0  0  0  0  0
    0.6452   -3.7900    0.0000 C   0  0  0  0  0  0  0  0  0  0  0  0
   -2.1080    1.5411    0.0000 C   0  0  0  0  0  0  0  0  0  0  0  0
   -3.6063    1.6114    0.0000 C   0  0  0  0  0  0  0  0  0  0  0  0
   -4.2946    2.9442    0.0000 C   0  0  0  0  0  0  0  0  0  0  0  0
   -3.4845    4.2066    0.0000 C   0  0  0  0  0  0  0  0  0  0  0  0
   -4.1728    5.5394    0.0000 C   0  0  0  0  0  0  0  0  0  0  0  0
   -5.6712    5.6097    0.0000 N   0  0  0  0  0  4  0  0  0  0  0  0
   -5.6009    7.1081    0.0000 C   0  0  0  0  0  0  0  0  0  0  0  0
   -5.7415    4.1114    0.0000 C   0  0  0  0  0  0  0  0  0  0  0  0
   -7.1695    5.6800    0.0000 C   0  0  0  0  0  0  0  0  0  0  0  0
   -1.9862    4.1363    0.0000 C   0  0  0  0  0  0  0  0  0  0  0  0
   -1.2979    2.8036    0.0000 C   0  0  0  0  0  0  0  0  0  0  0  0
   -4.5382   -2.2463    0.0000 C   0  0  0  0  0  0  0  0  0  0  0  0
   -6.0365   -2.1760    0.0000 C   0  0  0  0  0  0  0  0  0  0  0  0
   -6.8466   -3.4384    0.0000 C   0  0  0  0  0  0  0  0  0  0  0  0
   -6.1583   -4.7712    0.0000 C   0  0  0  0  0  0  0  0  0  0  0  0
   -6.9684   -6.0336    0.0000 C   0  0  0  0  0  0  0  0  0  0  0  0
   -8.4667   -5.9633    0.0000 N   0  0  0  0  0  4  0  0  0  0  0  0
   -8.5370   -7.4617    0.0000 C   0  0  0  0  0  0  0  0  0  0  0  0
   -8.3964   -4.4650    0.0000 C   0  0  0  0  0  0  0  0  0  0  0  0
   -9.9651   -5.8930    0.0000 C   0  0  0  0  0  0  0  0  0  0  0  0
   -4.6599   -4.8415    0.0000 C   0  0  0  0  0  0  0  0  0  0  0  0
   -3.8499   -3.5790    0.0000 C   0  0  0  0  0  0  0  0  0  0  0  0
   -6.6030    1.7520    0.0000 C   0  0  0  0  0  0  0  0  0  0  0  0
   -8.1014    1.8223    0.0000 C   0  0  0  0  0  0  0  0  0  0  0  0
   -8.7897    3.1551    0.0000 C   0  0  0  0  0  0  0  0  0  0  0  0
   -7.9796    4.4176    0.0000 C   0  0  0  0  0  0  0  0  0  0  0  0
   -8.6679    5.7503    0.0000 C   0  0  0  0  0  0  0  0  0  0  0  0
  -10.1662    5.8206    0.0000 N   0  0  0  0  0  4  0  0  0  0  0  0
  -10.0959    7.3190    0.0000 C   0  0  0  0  0  0  0  0  0  0  0  0
  -10.2365    4.3223    0.0000 C   0  0  0  0  0  0  0  0  0  0  0  0
  -11.6646    5.8909    0.0000 C   0  0  0  0  0  0  0  0  0  0  0  0
   -6.4812    4.3472    0.0000 C   0  0  0  0  0  0  0  0  0  0  0  0
   -5.7930    3.0145    0.0000 C   0  0  0  0  0  0  0  0  0  0  0  0
   -9.0332   -2.0353    0.0000 C   0  0  0  0  0  0  0  0  0  0  0  0
  -10.5316   -1.9650    0.0000 C   0  0  0  0  0  0  0  0  0  0  0  0
  -11.3416   -3.2275    0.0000 C   0  0  0  0  0  0  0  0  0  0  0  0
  -10.6533   -4.5602    0.0000 C   0  0  0  0  0  0  0  0  0  0  0  0
  -11.4634   -5.8227    0.0000 C   0  0  0  0  0  0  0  0  0  0  0  0
  -12.9618   -5.7524    0.0000 N   0  0  0  0  0  4  0  0  0  0  0  0
  -13.0321   -7.2507    0.0000 C   0  0  0  0  0  0  0  0  0  0  0  0
  -12.8915   -4.2540    0.0000 C   0  0  0  0  0  0  0  0  0  0  0  0
  -14.4601   -5.6821    0.0000 C   0  0  0  0  0  0  0  0  0  0  0  0
   -9.1550   -4.6306    0.0000 C   0  0  0  0  0  0  0  0  0  0  0  0
   -8.3449   -3.3681    0.0000 C   0  0  0  0  0  0  0  0  0  0  0  0
  -11.0981    1.9630    0.0000 C   0  0  0  0  0  0  0  0  0  0  0  0
  -12.5964    2.0333    0.0000 C   0  0  0  0  0  0  0  0  0  0  0  0
  -13.2847    3.3660    0.0000 C   0  0  0  0  0  0  0  0  0  0  0  0
  -12.4746    4.6285    0.0000 C   0  0  0  0  0  0  0  0  0  0  0  0
  -13.1629    5.9613    0.0000 C   0  0  0  0  0  0  0  0  0  0  0  0
  -14.6613    6.0316    0.0000 N   0  0  0  0  0  4  0  0  0  0  0  0
  -14.5910    7.5299    0.0000 C   0  0  0  0  0  0  0  0  0  0  0  0
  -14.7316    4.5332    0.0000 C   0  0  0  0  0  0  0  0  0  0  0  0
  -16.1596    6.1019    0.0000 C   0  0  0  0  0  0  0  0  0  0  0  0
  -10.9763    4.5582    0.0000 C   0  0  0  0  0  0  0  0  0  0  0  0
  -10.2880    3.2254    0.0000 C   0  0  0  0  0  0  0  0  0  0  0  0
  2  1  1  6
  2  3  1  0
  4  3  1  1
  4  5  1  0
  6  5  1  1
  6  7  1  0
  8  7  1  6
  8  9  1  0
 10  9  1  6
 10 11  1  0
 12 11  1  6
 12 13  1  0
 14 13  1  1
 14 15  1  0
 16 15  1  1
 16 17  1  0
 18 17  1  6
 18 19  1  0
 20 19  1  6
 20 21  1  0
 22 21  1  6
 22 23  1  0
 23 24  1  0
 24 25  1  0
 25 26  2  0
 26 27  1  0
 27 28  2  0
 28 29  1  0
 29 30  1  0
 30 31  1  0
 30 32  1  0
 30 33  1  0
 28 34  1  0
 34 35  2  0
 22 36  1  0
 36 37  2  0
 37 38  1  0
 38 39  2  0
 39 40  1  0
 40 41  1  0
 41 42  1  0
 41 43  1  0
 41 44  1  0
 39 45  1  0
 45 46  2  0
 20 47  1  0
 47 48  2  0
 48 49  1  0
 49 50  2  0
 50 51  1  0
 51 52  1  0
 52 53  1  0
 52 54  1  0
 52 55  1  0
 50 56  1  0
 56 57  2  0
 18 58  1  0
 58 59  2  0
 59 60  1  0
 60 61  2  0
 61 62  1  0
 62 63  1  0
 63 64  1  0
 63 65  1  0
 63 66  1  0
 61 67  1  0
 67 68  2  0
 16 69  1  0
 69 70  2  0
 70 71  1  0
 71 72  2  0
 72 73  1  0
 73 74  1  0
 74 75  1  0
 74 76  1  0
 74 77  1  0
 72 78  1  0
 78 79  2  0
 14 80  1  0
 80 81  2  0
 81 82  1  0
 82 83  2  0
 83 84  1  0
 84 85  1  0
 85 86  1  0
 85 87  1  0
 85 88  1  0
 83 89  1  0
 89 90  2  0
 12 91  1  0
 91 92  2  0
 92 93  1  0
 93 94  2  0
 94 95  1  0
 95 96  1  0
 96 97  1  0
 96 98  1  0
 96 99  1  0
 94100  1  0
100101  2  0
 10102  1  0
102103  2  0
103104  1  0
104105  2  0
105106  1  0
106107  1  0
107108  1  0
107109  1  0
107110  1  0
105111  1  0
111112  2  0
  8113  1  0
113114  2  0
114115  1  0
115116  2  0
116117  1  0
117118  1  0
118119  1  0
118120  1  0
118121  1  0
116122  1  0
122123  2  0
  6124  1  0
124125  2  0
125126  1  0
126127  2  0
127128  1  0
128129  1  0
129130  1  0
129131  1  0
129132  1  0
127133  1  0
133134  2  0
  4135  1  0
135136  2  0
136137  1  0
137138  2  0
138139  1  0
139140  1  0
140141  1  0
140142  1  0
140143  1  0
138144  1  0
144145  2  0
  2146  1  0
146147  2  0
147148  1  0
148149  2  0
149150  1  0
150151  1  0
151152  1  0
151153  1  0
151154  1  0
149155  1  0
155156  2  0
 35 25  1  0
 46 36  1  0
 57 47  1  0
 68 58  1  0
 79 69  1  0
 90 80  1  0
101 91  1  0
112102  1  0
123113  1  0
134124  1  0
145135  1  0
156146  1  0
M  CHG  8  30   1  41   1  52   1  63   1  74   1  85   1  96   1 107   1
M  CHG  4 118   1 129   1 140   1 151   1
M  END
