22892408
  -OEChem-07312516223D

 55 56  0     1  0  0  0  0  0999 V2000
   -4.4580    1.2106    0.0740 N   0  3  0  0  0  0  0  0  0  0  0  0
    1.3084   -1.8674   -0.0278 C   0  0  2  0  0  0  0  0  0  0  0  0
    1.9421   -1.3994    1.3093 C   0  0  0  0  0  0  0  0  0  0  0  0
    1.9424    0.1319    1.5395 C   0  0  2  0  0  0  0  0  0  0  0  0
   -0.1282   -1.3955   -0.1856 C   0  0  0  0  0  0  0  0  0  0  0  0
    1.4233   -3.4057   -0.1432 C   0  0  0  0  0  0  0  0  0  0  0  0
   -4.1737   -0.0686   -0.6330 C   0  0  0  0  0  0  0  0  0  0  0  0
   -2.7644   -0.5308   -0.4769 C   0  0  0  0  0  0  0  0  0  0  0  0
    2.7536    0.9016    0.5119 C   0  0  0  0  0  0  0  0  0  0  0  0
   -0.4754   -0.5625   -1.2492 C   0  0  0  0  0  0  0  0  0  0  0  0
   -1.0990   -1.7962    0.7323 C   0  0  0  0  0  0  0  0  0  0  0  0
    2.4442    0.4511    2.9540 C   0  0  0  0  0  0  0  0  0  0  0  0
   -4.2029    1.0646    1.5787 C   0  0  0  0  0  0  0  0  0  0  0  0
   -5.9200    1.6259   -0.1280 C   0  0  0  0  0  0  0  0  0  0  0  0
   -3.5607    2.3336   -0.4592 C   0  0  0  0  0  0  0  0  0  0  0  0
   -1.7935   -0.1302   -1.3948 C   0  0  0  0  0  0  0  0  0  0  0  0
   -2.4171   -1.3638    0.5867 C   0  0  0  0  0  0  0  0  0  0  0  0
    0.9418   -3.9480   -1.4837 C   0  0  0  0  0  0  0  0  0  0  0  0
    2.3440    2.1729    0.1100 C   0  0  0  0  0  0  0  0  0  0  0  0
    3.9081    0.3371   -0.0302 C   0  0  0  0  0  0  0  0  0  0  0  0
    3.0888    2.8797   -0.8342 C   0  0  0  0  0  0  0  0  0  0  0  0
    4.6530    1.0439   -0.9742 C   0  0  0  0  0  0  0  0  0  0  0  0
    4.2433    2.3152   -1.3763 C   0  0  0  0  0  0  0  0  0  0  0  0
    1.9021   -1.4490   -0.8502 H   0  0  0  0  0  0  0  0  0  0  0  0
    2.9549   -1.8100    1.4012 H   0  0  0  0  0  0  0  0  0  0  0  0
    1.3862   -1.8597    2.1384 H   0  0  0  0  0  0  0  0  0  0  0  0
    0.9037    0.4824    1.4864 H   0  0  0  0  0  0  0  0  0  0  0  0
    2.4752   -3.6931   -0.0194 H   0  0  0  0  0  0  0  0  0  0  0  0
    0.8693   -3.9028    0.6621 H   0  0  0  0  0  0  0  0  0  0  0  0
   -4.4172    0.0711   -1.6948 H   0  0  0  0  0  0  0  0  0  0  0  0
   -4.8714   -0.8269   -0.2529 H   0  0  0  0  0  0  0  0  0  0  0  0
    0.2692   -0.2433   -1.9733 H   0  0  0  0  0  0  0  0  0  0  0  0
   -0.8518   -2.4472    1.5661 H   0  0  0  0  0  0  0  0  0  0  0  0
   -4.5580    1.9757    2.0711 H   0  0  0  0  0  0  0  0  0  0  0  0
   -3.1314    0.9591    1.7645 H   0  0  0  0  0  0  0  0  0  0  0  0
   -4.7652    0.2006    1.9447 H   0  0  0  0  0  0  0  0  0  0  0  0
   -6.0934    1.7524   -1.2006 H   0  0  0  0  0  0  0  0  0  0  0  0
   -6.0948    2.5665    0.4026 H   0  0  0  0  0  0  0  0  0  0  0  0
   -6.5582    0.8338    0.2745 H   0  0  0  0  0  0  0  0  0  0  0  0
   -3.9001    3.2757   -0.0164 H   0  0  0  0  0  0  0  0  0  0  0  0
   -3.6650    2.3752   -1.5474 H   0  0  0  0  0  0  0  0  0  0  0  0
   -2.5257    2.1560   -0.1577 H   0  0  0  0  0  0  0  0  0  0  0  0
    2.4043    1.5278    3.1536 H   0  0  0  0  0  0  0  0  0  0  0  0
    1.8278   -0.0505    3.7076 H   0  0  0  0  0  0  0  0  0  0  0  0
    3.4814    0.1257    3.0932 H   0  0  0  0  0  0  0  0  0  0  0  0
   -2.0488    0.5100   -2.2349 H   0  0  0  0  0  0  0  0  0  0  0  0
   -3.1630   -1.6940    1.3046 H   0  0  0  0  0  0  0  0  0  0  0  0
    1.1359   -5.0239   -1.5428 H   0  0  0  0  0  0  0  0  0  0  0  0
    1.4666   -3.4647   -2.3139 H   0  0  0  0  0  0  0  0  0  0  0  0
   -0.1335   -3.7992   -1.6191 H   0  0  0  0  0  0  0  0  0  0  0  0
    1.4468    2.6242    0.5253 H   0  0  0  0  0  0  0  0  0  0  0  0
    4.2758   -0.6378    0.2704 H   0  0  0  0  0  0  0  0  0  0  0  0
    2.7699    3.8697   -1.1469 H   0  0  0  0  0  0  0  0  0  0  0  0
    5.5551    0.6070   -1.3928 H   0  0  0  0  0  0  0  0  0  0  0  0
    4.8240    2.8660   -2.1103 H   0  0  0  0  0  0  0  0  0  0  0  0
  1  7  1  0  0  0  0
  1 13  1  0  0  0  0
  1 14  1  0  0  0  0
  1 15  1  0  0  0  0
  2  3  1  0  0  0  0
  2  5  1  0  0  0  0
  2  6  1  0  0  0  0
  2 24  1  0  0  0  0
  3  4  1  0  0  0  0
  3 25  1  0  0  0  0
  3 26  1  0  0  0  0
  4  9  1  0  0  0  0
  4 12  1  0  0  0  0
  4 27  1  0  0  0  0
  5 10  2  0  0  0  0
  5 11  1  0  0  0  0
  6 18  1  0  0  0  0
  6 28  1  0  0  0  0
  6 29  1  0  0  0  0
  7  8  1  0  0  0  0
  7 30  1  0  0  0  0
  7 31  1  0  0  0  0
  8 16  2  0  0  0  0
  8 17  1  0  0  0  0
  9 19  2  0  0  0  0
  9 20  1  0  0  0  0
 10 16  1  0  0  0  0
 10 32  1  0  0  0  0
 11 17  2  0  0  0  0
 11 33  1  0  0  0  0
 12 43  1  0  0  0  0
 12 44  1  0  0  0  0
 12 45  1  0  0  0  0
 13 34  1  0  0  0  0
 13 35  1  0  0  0  0
 13 36  1  0  0  0  0
 14 37  1  0  0  0  0
 14 38  1  0  0  0  0
 14 39  1  0  0  0  0
 15 40  1  0  0  0  0
 15 41  1  0  0  0  0
 15 42  1  0  0  0  0
 16 46  1  0  0  0  0
 17 47  1  0  0  0  0
 18 48  1  0  0  0  0
 18 49  1  0  0  0  0
 18 50  1  0  0  0  0
 19 21  1  0  0  0  0
 19 51  1  0  0  0  0
 20 22  2  0  0  0  0
 20 52  1  0  0  0  0
 21 23  2  0  0  0  0
 21 53  1  0  0  0  0
 22 23  1  0  0  0  0
 22 54  1  0  0  0  0
 23 55  1  0  0  0  0
M  CHG  1   1   1
M  END
> <PUBCHEM_COMPOUND_CID>
22892408

> <PUBCHEM_CONFORMER_RMSD>
0.8

> <PUBCHEM_CONFORMER_DIVERSEORDER>
1
42
24
92
30
64
83
120
85
55
51
69
110
9
119
27
114
118
28
112
93
60
37
54
105
39
101
74
106
108
19
57
115
63
49
45
23
7
96
36
80
95
116
98
50
86
16
97
90
94
29
99
22
10
77
71
117
81
44
38
43
62
67
12
21
76
61
40
35
6
53
47
48
73
34
107
87
2
56
18
68
31
84
46
100
58
32
103
66
75
82
8
70
4
79
109
33
13
3
26
65
52
104
20
5
88
41
17
91
59
102
15
113
89
14
25
72
78
111
11

> <PUBCHEM_MMFF94_PARTIAL_CHARGES>
28
1 -1.01
10 -0.15
11 -0.15
13 0.5
14 0.5
15 0.5
16 -0.15
17 -0.15
19 -0.15
2 0.14
20 -0.15
21 -0.15
22 -0.15
23 -0.15
32 0.15
33 0.15
4 0.14
46 0.15
47 0.15
5 -0.14
51 0.15
52 0.15
53 0.15
54 0.15
55 0.15
7 0.65
8 -0.14
9 -0.14

> <PUBCHEM_EFFECTIVE_ROTOR_COUNT>
7

> <PUBCHEM_PHARMACOPHORE_FEATURES>
6
1 1 cation
1 12 hydrophobe
1 18 hydrophobe
4 2 3 4 6 hydrophobe
6 5 8 10 11 16 17 rings
6 9 19 20 21 22 23 rings

> <PUBCHEM_HEAVY_ATOM_COUNT>
23

> <PUBCHEM_ATOM_DEF_STEREO_COUNT>
0

> <PUBCHEM_ATOM_UDEF_STEREO_COUNT>
2

> <PUBCHEM_BOND_DEF_STEREO_COUNT>
0

> <PUBCHEM_BOND_UDEF_STEREO_COUNT>
0

> <PUBCHEM_ISOTOPIC_ATOM_COUNT>
0

> <PUBCHEM_COMPONENT_COUNT>
1

> <PUBCHEM_CACTVS_TAUTO_COUNT>
1

> <PUBCHEM_CONFORMER_ID>
015D4F7800000001

> <PUBCHEM_MMFF94_ENERGY>
70.2677

> <PUBCHEM_FEATURE_SELFOVERLAP>
30.446

> <PUBCHEM_SHAPE_FINGERPRINT>
10382601 240 17530676628570796100
10483366 6 18267039267182033438
11578080 2 18123785065119226339
12160290 23 17832958908969706174
12173636 292 18124027098999605910
12422481 6 17906142107141391626
12596602 18 17312824879522296737
12633257 1 17750216084775380763
12788726 201 17617642693679737998
13544653 18 10735892672365141422
13944108 23 18265336105563239957
14251751 18 10663826256380056241
14251764 75 18116442624610107772
15163728 17 18265071252230186350
151778 21 18408886226292086132
15238133 3 18411125927346773760
15342168 16 18407755928892510173
1601671 61 18335416859814834136
17899979 19 17486794991069006942
1813 80 17482839969611889502
18785283 64 18334859364222374698
20567600 9 18272093755598007925
20739085 24 18194387910657640930
21250096 35 9583250430484027796
21475661 188 17899403196048538821
21503847 285 18187364303150979016
21864079 5 18265607869707785344
22907989 373 17834946847393676630
23559900 14 18269832026178831839
2637199 183 18261396684776476972
392239 28 15791725343201581064
397830 11 18115889438440956113
427121 178 16298107588205763424
439807 62 11239697692580872173
469060 322 15071134138619028518
474 4 18410007711394554691
5081480 168 17839491915003434879
5161694 15 16558473101151419284
57724786 102 18195820561582096913
6086070 43 17465357748241997183
633830 44 18411417358094158158
76465 3 10303818674318790309
7808743 9 18335984288939129736
81228 2 17119151661256145418

> <PUBCHEM_SHAPE_MULTIPOLES>
468.35
9.91
3.74
1.78
8.66
2.3
1.05
-9.36
-0.86
-2.01
-1.5
-1.17
-0.05
-0.8

> <PUBCHEM_SHAPE_SELFOVERLAP>
960.742

> <PUBCHEM_SHAPE_VOLUME>
271.9

> <PUBCHEM_COORDINATE_TYPE>
2
5
10

$$$$
