11783764
  -OEChem-09192521543D

 26 25  0     0  0  0  0  0  0999 V2000
    0.8163    2.5124   -0.5411 F   0  0  0  0  0  0  0  0  0  0  0  0
   -0.6033    1.4487   -1.7927 F   0  0  0  0  0  0  0  0  0  0  0  0
    1.8312    0.4801   -1.9277 F   0  0  0  0  0  0  0  0  0  0  0  0
    0.4332   -0.9432   -1.0711 F   0  0  0  0  0  0  0  0  0  0  0  0
   -1.5925    2.4715    0.4922 F   0  0  0  0  0  0  0  0  0  0  0  0
   -0.1667    1.3721    1.6967 F   0  0  0  0  0  0  0  0  0  0  0  0
   -1.1338   -1.0079    0.7867 F   0  0  0  0  0  0  0  0  0  0  0  0
   -2.5662    0.2878    1.7663 F   0  0  0  0  0  0  0  0  0  0  0  0
    1.3895   -0.2798    1.4864 F   0  0  0  0  0  0  0  0  0  0  0  0
    2.7960    1.1011    0.5591 F   0  0  0  0  0  0  0  0  0  0  0  0
    3.7861   -0.9657   -0.9909 F   0  0  0  0  0  0  0  0  0  0  0  0
    2.3657   -2.3370   -0.0609 F   0  0  0  0  0  0  0  0  0  0  0  0
    3.8609   -1.3205    1.1588 F   0  0  0  0  0  0  0  0  0  0  0  0
   -4.6074   -1.3522   -1.3939 O   0  0  0  0  0  0  0  0  0  0  0  0
   -3.6906   -1.9980    0.5822 O   0  0  0  0  0  0  0  0  0  0  0  0
    0.1090    1.3485   -0.6347 C   0  0  0  0  0  0  0  0  0  0  0  0
   -0.8692    1.3153    0.5317 C   0  0  0  0  0  0  0  0  0  0  0  0
    1.1024    0.2075   -0.8055 C   0  0  0  0  0  0  0  0  0  0  0  0
   -1.8382    0.1447    0.6226 C   0  0  0  0  0  0  0  0  0  0  0  0
    2.0724   -0.0269    0.3425 C   0  0  0  0  0  0  0  0  0  0  0  0
   -2.7985   -0.0536   -0.5399 C   0  0  0  0  0  0  0  0  0  0  0  0
    3.0272   -1.1720    0.1059 C   0  0  0  0  0  0  0  0  0  0  0  0
   -3.7233   -1.2327   -0.3726 C   0  0  0  0  0  0  0  0  0  0  0  0
   -2.2367   -0.2303   -1.4625 H   0  0  0  0  0  0  0  0  0  0  0  0
   -3.4201    0.8408   -0.6547 H   0  0  0  0  0  0  0  0  0  0  0  0
   -5.2060   -2.1198   -1.2722 H   0  0  0  0  0  0  0  0  0  0  0  0
  1 16  1  0  0  0  0
  2 16  1  0  0  0  0
  3 18  1  0  0  0  0
  4 18  1  0  0  0  0
  5 17  1  0  0  0  0
  6 17  1  0  0  0  0
  7 19  1  0  0  0  0
  8 19  1  0  0  0  0
  9 20  1  0  0  0  0
 10 20  1  0  0  0  0
 11 22  1  0  0  0  0
 12 22  1  0  0  0  0
 13 22  1  0  0  0  0
 14 23  1  0  0  0  0
 14 26  1  0  0  0  0
 15 23  2  0  0  0  0
 16 17  1  0  0  0  0
 16 18  1  0  0  0  0
 17 19  1  0  0  0  0
 18 20  1  0  0  0  0
 19 21  1  0  0  0  0
 20 22  1  0  0  0  0
 21 23  1  0  0  0  0
 21 24  1  0  0  0  0
 21 25  1  0  0  0  0
M  END
> <PUBCHEM_COMPOUND_CID>
11783764

> <PUBCHEM_CONFORMER_RMSD>
0.8

> <PUBCHEM_CONFORMER_DIVERSEORDER>
1
123
38
116
41
48
16
28
43
39
8
120
54
36
107
64
7
53
112
45
110
115
92
79
14
35
108
50
113
57
65
20
114
52
109
5
2
82
119
17
75
10
118
22
83
6
122
99
67
18
19
69
81
46
111
13
117
91
80
23
21
121
62
27
96
3
78
105
89
26
88
77
55
37
11
104
66
61
15
86
25
34
73
72
100
84
32
103
71
44
101
106
12
24
33
40
51
49
59
60
56
58
76
42
63
9
85
30
102
47
70
95
31
4
87
29
68
74
97
98
93
94
90

> <PUBCHEM_MMFF94_PARTIAL_CHARGES>
24
1 -0.34
10 -0.34
11 -0.34
12 -0.34
13 -0.34
14 -0.65
15 -0.57
16 0.68
17 0.68
18 0.68
19 0.68
2 -0.34
20 0.68
21 0.06
22 1.02
23 0.66
26 0.5
3 -0.34
4 -0.34
5 -0.34
6 -0.34
7 -0.34
8 -0.34
9 -0.34

> <PUBCHEM_EFFECTIVE_ROTOR_COUNT>
7

> <PUBCHEM_PHARMACOPHORE_FEATURES>
3
1 14 acceptor
1 15 acceptor
3 14 15 23 anion

> <PUBCHEM_HEAVY_ATOM_COUNT>
23

> <PUBCHEM_ATOM_DEF_STEREO_COUNT>
0

> <PUBCHEM_ATOM_UDEF_STEREO_COUNT>
0

> <PUBCHEM_BOND_DEF_STEREO_COUNT>
0

> <PUBCHEM_BOND_UDEF_STEREO_COUNT>
0

> <PUBCHEM_ISOTOPIC_ATOM_COUNT>
0

> <PUBCHEM_COMPONENT_COUNT>
1

> <PUBCHEM_CACTVS_TAUTO_COUNT>
1

> <PUBCHEM_CONFORMER_ID>
00B3CE5400000001

> <PUBCHEM_MMFF94_ENERGY>
18.0558

> <PUBCHEM_FEATURE_SELFOVERLAP>
15.281

> <PUBCHEM_SHAPE_FINGERPRINT>
10618630 7 18411133653950545739
10863032 1 18270959029623042968
10922049 32 9583242785584672029
11578080 2 18338504301013706941
11769659 78 18411134710364625714
12553582 1 18336563658589486059
12633257 1 17702391645367286642
13083527 12 18271512208378211656
13134695 92 18198610211428222965
13544653 18 18342734148114940827
13583140 156 17201901666549913154
13705890 14 17895755213613716427
14178342 30 16772974553014428515
14181834 199 17896319297243331836
14787075 74 17557983119900086280
14817 1 10005826760969192673
15142383 8 18412266151908109691
15534591 1 10809346641885901081
16945 1 18263097663112876696
17834072 14 18409719682107768301
18186145 218 15213023756151452181
19862831 5 16732699419896771475
19868273 293 12396301460794645187
200 152 18334292058865750927
20361792 2 18041293096610642173
20645477 70 18117270570393640271
20671657 53 18040996254256621439
21452121 199 18340197604907271185
21452121 71 18335147504829527700
21524375 3 10951763041120090469
21731516 1 18340225036694325745
22112679 90 18266203671876707081
231179 274 10015601496849797867
23402539 116 18334574603468724962
23419403 2 17984104228501654761
23526113 38 16588308340438703237
23559900 14 18411689985449197384
25 1 11891324327410523115
276578 36 11527953369481863614
296302 2 17894909680408137228
31174 14 17489010665136817376
3286 77 17346591984842795138
347723 3 15647319798150955429
439807 62 16553928906538011511
49207404 50 12463298054624023007
5161694 15 17313375773476066007
633830 44 12252444619750622915
6442390 28 10231464285414809413
81228 2 17677047911016469036
9999458 23 10879728618393918256

> <PUBCHEM_SHAPE_MULTIPOLES>
367.03
6.35
2.15
1.48
2.18
0.4
0.08
-4.71
0.44
0.13
0.01
0.08
0.22
-0.46

> <PUBCHEM_SHAPE_SELFOVERLAP>
783.269

> <PUBCHEM_SHAPE_VOLUME>
200.5

> <PUBCHEM_COORDINATE_TYPE>
2
5
10

$$$$
