@<TRIPOS>MOLECULE
PFO
   25    24     1     0     0
SMALL
bcc


@<TRIPOS>ATOM
      1 F          -1.0540     1.9480   -0.2010 f           1 PFO       -0.165663
      2 F1          0.5430     1.2580   -1.5020 f           1 PFO       -0.165667
      3 F2          1.2220     1.6490    1.0780 f           1 PFO       -0.203667
      4 F3         -0.3330     0.2930    1.7580 f           1 PFO       -0.203667
      5 F4         -1.8210     0.1670   -2.1650 f           1 PFO       -0.194667
      6 F5         -0.4530    -1.3200   -1.3550 f           1 PFO       -0.194667
      7 F6          2.0670    -0.7620    1.9170 f           1 PFO       -0.225667
      8 F7          0.8050    -1.7940    0.4870 f           1 PFO       -0.225667
      9 F8         -2.9830    -1.7150   -0.6820 f           1 PFO       -0.185167
     10 F9         -1.6930    -1.3050    1.0210 f           1 PFO       -0.185167
     11 F10         2.1050    -0.6120   -1.6010 f           1 PFO       -0.236667
     12 F11         3.3420    -1.7550   -0.2360 f           1 PFO       -0.236667
     13 F12        -3.9680     0.8420   -0.5960 f           1 PFO       -0.213500
     14 F13        -2.6830     1.3010    1.1090 f           1 PFO       -0.213500
     15 F14        -4.1730    -0.2740    1.2670 f           1 PFO       -0.213500
     16 O           4.5700     0.3290    0.6740 o           1 PFO       -0.760800
     17 O1          3.3670     1.6770   -0.7040 o           1 PFO       -0.760800
     18 C          -0.2910     0.8600   -0.5110 c3          1 PFO        0.418600
     19 C1          0.5310     0.5260    0.7270 c3          1 PFO        0.377600
     20 C2         -1.2140    -0.2390   -1.0210 c3          1 PFO        0.320600
     21 C3          1.5060    -0.6430    0.6780 c3          1 PFO        0.329600
     22 C4         -2.2850    -0.7250   -0.0560 c3          1 PFO        0.352600
     23 C5          2.6300    -0.5970   -0.3480 c3          1 PFO        0.244600
     24 C6         -3.2790     0.3000    0.4300 c3          1 PFO        0.596900
     25 C7          3.5390     0.5910   -0.1670 c           1 PFO        0.944600
@<TRIPOS>BOND
     1     1    18 1   
     2     2    18 1   
     3     3    19 1   
     4     4    19 1   
     5     5    20 1   
     6     6    20 1   
     7     7    21 1   
     8     8    21 1   
     9     9    22 1   
    10    10    22 1   
    11    11    23 1   
    12    12    23 1   
    13    13    24 1   
    14    14    24 1   
    15    15    24 1   
    16    16    25 1   
    17    17    25 1   
    18    18    19 1   
    19    18    20 1   
    20    19    21 1   
    21    20    22 1   
    22    21    23 1   
    23    22    24 1   
    24    23    25 1   
@<TRIPOS>SUBSTRUCTURE
     1 PFO         1 TEMP              0 ****  ****    0 ROOT
