
 OpenBabel04182620193D

  0  0  0     0  0            999 V3000
M  V30 BEGIN CTAB
M  V30 COUNTS 1644 1692 0 0 0
M  V30 BEGIN ATOM
M  V30 1 C 4.97675 8.18223 8.11863 0
M  V30 2 C 4.75642 6.72395 7.69562 0
M  V30 3 C 5.14008 5.7105 8.80172 0
M  V30 4 C 4.29708 5.81625 10.0797 0
M  V30 5 C 4.68654 4.868 11.2478 0
M  V30 6 C 6.18942 4.98953 11.6224 0
M  V30 7 C 6.56063 6.34532 12.2503 0
M  V30 8 C 8.05366 6.48681 12.6173 0
M  V30 9 C 8.96578 6.29346 11.37 0
M  V30 10 C 8.80214 7.31573 10.2191 0
M  V30 11 C 9.30883 8.76578 10.4633 0
M  V30 12 C 10.8188 8.82262 10.7928 0
M  V30 13 C 11.6876 8.5739 9.56797 0
M  V30 14 C 13.18 8.34337 9.85619 0
M  V30 15 C 13.392 7.21567 10.9024 0
M  V30 16 C 12.7648 5.85054 10.5418 0
M  V30 17 C 13.4822 4.99777 9.45394 0
M  V30 18 C 14.929 4.61942 9.87412 0
M  V30 19 C 14.8831 3.57014 10.9757 0
M  V30 20 C 16.1511 3.27282 11.7744 0
M  V30 21 C 16.7617 4.57364 12.3607 0
M  V30 22 C 15.8519 5.42261 13.2847 0
M  V30 23 C 15.5255 4.85816 14.6942 0
M  V30 24 C 16.7964 4.65608 15.552 0
M  V30 25 C 17.3846 5.98659 16.021 0
M  V30 26 C 18.7718 5.8991 16.6738 0
M  V30 27 C 19.7729 5.14276 15.7653 0
M  V30 28 C 19.9212 5.68301 14.3248 0
M  V30 29 C 20.6787 7.02469 14.1078 0
M  V30 30 C 22.1469 6.94221 14.5855 0
M  V30 31 C 22.9621 6.07499 13.6291 0
M  V30 32 C 24.374 5.69161 14.0659 0
M  V30 33 C 24.3512 5.09423 15.4876 0
M  V30 34 C 23.3919 3.89632 15.7133 0
M  V30 35 C 23.7927 2.54519 15.085 0
M  V30 36 C 25.2225 2.16879 15.4975 0
M  V30 37 C 25.3147 1.93456 17.002 0
M  V30 38 C 26.7161 1.59839 17.5518 0
M  V30 39 C 27.6794 2.79603 17.2356 0
M  V30 40 C 27.3723 4.16331 17.8562 0
M  V30 41 C 27.5616 4.21216 19.3668 0
M  V30 42 C 28.9374 3.62931 19.7603 0
M  V30 43 C 30.1938 4.3622 19.1953 0
M  V30 44 C 30.6704 5.65854 19.9134 0
M  V30 45 C 30.5533 5.3288 21.4441 0
M  V30 46 C 31.2295 4.02647 22.0068 0
M  V30 47 C 32.7312 4.09929 21.8329 0
M  V30 48 C 33.1712 5.53025 22.2229 0
M  V30 49 C 32.7467 5.88141 23.6429 0
M  V30 50 C 33.6784 5.27301 24.6711 0
M  V30 51 C 35.1074 5.74226 24.303 0
M  V30 52 C 35.2226 7.28264 24.1412 0
M  V30 53 C 35.0845 7.968 25.5038 0
M  V30 54 C 36.1257 7.30646 26.4417 0
M  V30 55 C 37.5436 7.26641 25.8279 0
M  V30 56 C 38.157 8.66733 25.766 0
M  V30 57 C 38.0929 9.25086 27.1979 0
M  V30 58 C 38.6775 8.30088 28.2639 0
M  V30 59 C 40.2005 8.21455 28.151 0
M  V30 60 C 40.763 9.65241 28.2755 0
M  V30 61 C 40.2043 10.4252 29.486 0
M  V30 62 C 40.6942 9.83356 30.8123 0
M  V30 63 C 42.2423 9.83963 30.8006 0
M  V30 64 C 42.8569 11.2045 30.4493 0
M  V30 65 C 42.6799 12.2442 31.5657 0
M  V30 66 C 43.3194 11.7166 32.8714 0
M  V30 67 C 44.755 11.215 32.7048 0
M  V30 68 C 45.8023 12.3195 32.4322 0
M  V30 69 C 45.8225 13.3605 33.5862 0
M  V30 70 C 46.2663 12.6884 34.8745 0
M  V30 71 C 46.1895 13.4989 36.1704 0
M  V30 72 C 44.759 13.8642 36.5656 0
M  V30 73 C 46.8565 12.5982 37.2018 0
M  V30 74 C 48.1174 12.9427 37.6909 0
M  V30 75 C 48.8465 12.0312 38.4481 0
M  V30 76 C 48.3335 10.7538 38.7188 0
M  V30 77 C 49.1601 9.76318 39.4958 0
M  V30 78 N 48.8813 9.6853 40.9875 0 CHG=1
M  V30 79 C 47.4596 9.24915 41.2937 0
M  V30 80 C 49.8451 8.66354 41.6002 0
M  V30 81 C 49.1486 11.045 41.6472 0
M  V30 82 C 47.0532 10.4208 38.2645 0
M  V30 83 C 46.3178 11.3379 37.5228 0
M  V30 84 C 47.1916 11.7697 32.1249 0
M  V30 85 C 47.5052 10.4088 32.2106 0
M  V30 86 C 48.814 9.97031 32.0419 0
M  V30 87 C 49.8419 10.8808 31.7727 0
M  V30 88 C 51.2728 10.4125 31.6968 0
M  V30 89 N 51.6972 9.79711 30.348 0 CHG=1
M  V30 90 C 53.0971 9.20006 30.5559 0
M  V30 91 C 50.7731 8.70373 29.8796 0
M  V30 92 C 51.7889 10.8915 29.2934 0
M  V30 93 C 49.5284 12.2356 31.6279 0
M  V30 94 C 48.2155 12.6728 31.7962 0
M  V30 95 C 43.1079 13.6502 31.2033 0
M  V30 96 C 43.7567 13.9693 30.0037 0
M  V30 97 C 44.2547 15.2479 29.7906 0
M  V30 98 C 44.1027 16.2412 30.7664 0
M  V30 99 C 44.6977 17.6114 30.5577 0
M  V30 100 N 43.7515 18.6267 29.9112 0 CHG=1
M  V30 101 C 42.5638 18.9294 30.8141 0
M  V30 102 C 44.552 19.9308 29.7274 0
M  V30 103 C 43.2681 18.1615 28.5571 0
M  V30 104 C 43.3892 15.9499 31.9322 0
M  V30 105 C 42.8803 14.6722 32.1371 0
M  V30 106 C 40.0677 10.4221 32.0617 0
M  V30 107 C 39.2157 11.5327 32.0364 0
M  V30 108 C 38.8448 12.1597 33.221 0
M  V30 109 C 39.2983 11.6785 34.456 0
M  V30 110 C 39.0053 12.443 35.7244 0
M  V30 111 N 37.6705 12.1173 36.3909 0 CHG=1
M  V30 112 C 37.4918 13.1201 37.5507 0
M  V30 113 C 36.4972 12.2725 35.4499 0
M  V30 114 C 37.6892 10.714 36.9765 0
M  V30 115 C 40.0525 10.5026 34.4919 0
M  V30 116 C 40.4147 9.87076 33.306 0
M  V30 117 C 40.8649 7.16118 29.0207 0
M  V30 118 C 40.1765 6.42645 29.9954 0
M  V30 119 C 40.8655 5.59329 30.8719 0
M  V30 120 C 42.2573 5.46042 30.7817 0
M  V30 121 C 43.0033 4.61662 31.7828 0
M  V30 122 N 43.2062 3.15373 31.361 0 CHG=1
M  V30 123 C 44.0799 3.05299 30.1259 0
M  V30 124 C 43.9252 2.44431 32.523 0
M  V30 125 C 41.8799 2.46247 31.1247 0
M  V30 126 C 42.9371 6.12262 29.7531 0
M  V30 127 C 42.2442 6.94559 28.8713 0
M  V30 128 C 39.5081 8.76488 25.0751 0
M  V30 129 C 40.2325 7.64509 24.645 0
M  V30 130 C 41.5527 7.77859 24.221 0
M  V30 131 C 42.1704 9.03683 24.1938 0
M  V30 132 C 43.6356 9.16634 23.8624 0
M  V30 133 N 43.963 9.29811 22.3712 0 CHG=1
M  V30 134 C 45.4944 9.25536 22.2368 0
M  V30 135 C 43.3707 8.18447 21.5529 0
M  V30 136 C 43.4789 10.6496 21.8425 0
M  V30 137 C 41.4152 10.1688 24.5112 0
M  V30 138 C 40.0927 10.0334 24.9269 0
M  V30 139 C 35.0661 9.487 25.5189 0
M  V30 140 C 35.3508 10.279 24.4 0
M  V30 141 C 35.4953 11.6624 24.5309 0
M  V30 142 C 35.3346 12.2867 25.7764 0
M  V30 143 C 35.5588 13.775 25.9335 0
M  V30 144 N 34.3119 14.636 25.7573 0 CHG=1
M  V30 145 C 33.276 14.361 26.8385 0
M  V30 146 C 34.7437 16.1157 25.899 0
M  V30 147 C 33.6935 14.4604 24.389 0
M  V30 148 C 34.9584 11.5089 26.8753 0
M  V30 149 C 34.8034 10.132 26.7409 0
M  V30 150 C 33.1873 5.49034 26.092 0
M  V30 151 C 32.0938 6.31803 26.3971 0
M  V30 152 C 31.7626 6.61375 27.7113 0
M  V30 153 C 32.4867 6.04924 28.7659 0
M  V30 154 C 32.1348 6.40736 30.1904 0
M  V30 155 N 30.9404 5.65152 30.7659 0 CHG=1
M  V30 156 C 30.6507 6.2479 32.1598 0
M  V30 157 C 29.6766 5.79426 29.9388 0
M  V30 158 C 31.2758 4.17828 30.936 0
M  V30 159 C 33.5259 5.16384 28.4742 0
M  V30 160 C 33.8608 4.87235 27.1529 0
M  V30 161 C 33.6919 3.04875 22.346 0
M  V30 162 C 33.3359 2.04172 23.2404 0
M  V30 163 C 34.3228 1.21058 23.7783 0
M  V30 164 C 35.6725 1.35948 23.4246 0
M  V30 165 C 36.7319 0.467583 24.0272 0
M  V30 166 N 37.1917 -0.686474 23.1124 0 CHG=1
M  V30 167 C 37.9371 -0.189865 21.8883 0
M  V30 168 C 38.1528 -1.56308 23.9297 0
M  V30 169 C 36.001 -1.52371 22.6916 0
M  V30 170 C 36.021 2.33614 22.4868 0
M  V30 171 C 35.0379 3.14485 21.9356 0
M  V30 172 C 31.9417 6.42613 19.321 0
M  V30 173 C 33.2473 5.91947 19.299 0
M  V30 174 C 34.3911 6.54126 18.7538 0
M  V30 175 C 34.3162 7.76212 18.1115 0
M  V30 176 C 35.6149 8.32857 17.5261 0
M  V30 177 N 35.7616 8.45718 16.0014 0 CHG=1
M  V30 178 C 35.3213 7.24846 15.2355 0
M  V30 179 C 34.9929 9.68557 15.5046 0
M  V30 180 C 37.2545 8.69114 15.6524 0
M  V30 181 C 33.039 8.34969 18.1267 0
M  V30 182 C 31.8832 7.69855 18.7135 0
M  V30 183 C 27.3281 5.55783 20.0215 0
M  V30 184 C 27.1221 5.57879 21.4104 0
M  V30 185 C 27.1769 6.77765 22.1168 0
M  V30 186 C 27.4251 7.98254 21.4493 0
M  V30 187 C 27.6941 9.25243 22.2238 0
M  V30 188 N 29.1336 9.35637 22.8027 0 CHG=1
M  V30 189 C 29.4001 8.28427 23.8465 0
M  V30 190 C 30.1611 9.29816 21.7089 0
M  V30 191 C 29.2485 10.7114 23.5149 0
M  V30 192 C 27.4938 7.97548 20.0497 0
M  V30 193 C 27.4282 6.77432 19.3399 0
M  V30 194 C 26.5914 1.19447 19.0661 0
M  V30 195 C 25.3702 1.32725 19.7591 0
M  V30 196 C 25.1426 0.681497 20.9681 0
M  V30 197 C 26.1198 -0.139726 21.5281 0
M  V30 198 C 25.7411 -1.02854 22.6903 0
M  V30 199 N 25.0489 -2.34614 22.2568 0 CHG=1
M  V30 200 C 23.7776 -2.10841 21.4533 0
M  V30 201 C 25.9926 -3.17122 21.4315 0
M  V30 202 C 24.6623 -3.11704 23.5237 0
M  V30 203 C 27.3757 -0.214145 20.9098 0
M  V30 204 C 27.611 0.45225 19.7009 0
M  V30 205 C 27.1629 0.336609 16.7842 0
M  V30 206 C 28.047 0.363969 15.7026 0
M  V30 207 C 28.4005 -0.807047 15.0543 0
M  V30 208 C 27.9596 -2.04668 15.5232 0
M  V30 209 C 28.3695 -3.39462 14.907 0
M  V30 210 C 29.3806 -3.21146 13.7209 0
M  V30 211 C 30.775 -2.7264 14.1489 0
M  V30 212 C 31.7292 -2.59793 12.9773 0
M  V30 213 C 33.0145 -1.98519 13.5125 0
M  V30 214 C 33.9902 -1.71928 12.375 0
M  V30 215 C 35.1973 -0.957868 12.8838 0
M  V30 216 C 36.0641 -0.461179 11.7195 0
M  V30 217 C 37.2323 0.438357 12.1806 0
M  V30 218 C 38.1753 -0.205308 13.2312 0
M  V30 219 C 38.5391 -1.62997 12.7523 0
M  V30 220 C 39.0974 -1.65199 11.3164 0
M  V30 221 C 40.4416 -0.975394 11.2013 0
M  V30 222 C 41.4262 -1.62788 12.2197 0
M  V30 223 C 41.4635 -3.16235 12.0836 0
M  V30 224 C 42.0695 -3.62795 10.7065 0
M  V30 225 C 43.4631 -2.98662 10.5711 0
M  V30 226 C 44.3949 -3.21471 11.7728 0
M  V30 227 C 44.76 -4.69206 11.9354 0
M  V30 228 C 45.3959 -5.20136 10.6195 0
M  V30 229 C 46.5537 -4.33066 10.1089 0
M  V30 230 C 47.7845 -4.39942 11.0219 0
M  V30 231 C 48.2569 -5.87258 11.1418 0
M  V30 232 C 48.4029 -6.60876 9.79806 0
M  V30 233 C 49.5242 -6.03243 8.92001 0
M  V30 234 C 50.8789 -6.12027 9.66356 0
M  V30 235 C 51.2261 -7.5148 10.1989 0
M  V30 236 C 51.4793 -8.55532 9.09337 0
M  V30 237 C 52.6484 -8.11507 8.17751 0
M  V30 238 C 53.9355 -7.70933 8.90503 0
M  V30 239 C 54.656 -8.84453 9.66709 0
M  V30 240 C 55.0585 -10.0028 8.7221 0
M  V30 241 C 56.1143 -9.56864 7.71333 0
M  V30 242 C 56.4042 -10.5812 6.59461 0
M  V30 243 C 55.2255 -10.7618 5.63455 0
M  V30 244 C 57.6336 -10.1098 5.83763 0
M  V30 245 C 58.714 -10.9804 5.67899 0
M  V30 246 C 59.888 -10.5468 5.06311 0
M  V30 247 C 60.0118 -9.22558 4.60241 0
M  V30 248 C 61.3064 -8.78301 3.95882 0
M  V30 249 N 61.2806 -8.63432 2.43479 0 CHG=1
M  V30 250 C 60.8156 -9.93099 1.77841 0
M  V30 251 C 60.4104 -7.48601 1.97 0
M  V30 252 C 62.7214 -8.35342 1.97208 0
M  V30 253 C 58.9244 -8.35719 4.74972 0
M  V30 254 C 57.7425 -8.8014 5.34008 0
M  V30 255 C 55.7998 -8.37717 10.5539 0
M  V30 256 C 56.2724 -7.05874 10.5522 0
M  V30 257 C 57.3372 -6.68289 11.3653 0
M  V30 258 C 57.965 -7.6181 12.1977 0
M  V30 259 C 59.138 -7.20053 13.0483 0
M  V30 260 N 58.7678 -6.7455 14.4775 0 CHG=1
M  V30 261 C 58.2328 -7.90828 15.2948 0
M  V30 262 C 60.0634 -6.24912 15.1393 0
M  V30 263 C 57.7706 -5.61395 14.4591 0
M  V30 264 C 57.4844 -8.9323 12.2223 0
M  V30 265 C 56.4109 -9.30298 11.4154 0
M  V30 266 C 51.5951 -9.98752 9.58214 0
M  V30 267 C 51.7579 -10.3154 10.9306 0
M  V30 268 C 52.0189 -11.6272 11.3092 0
M  V30 269 C 52.0508 -12.659 10.3628 0
M  V30 270 C 52.3774 -14.0789 10.7605 0
M  V30 271 N 51.292 -14.8027 11.5889 0 CHG=1
M  V30 272 C 51.0142 -14.1245 12.9115 0
M  V30 273 C 50.0156 -14.9262 10.7841 0
M  V30 274 C 51.8341 -16.2109 11.8913 0
M  V30 275 C 51.8221 -12.3441 9.01867 0
M  V30 276 C 51.5965 -11.0239 8.63497 0
M  V30 277 C 49.5437 -6.50954 7.47933 0
M  V30 278 C 48.7494 -7.5594 7.00933 0
M  V30 279 C 48.8807 -8.01447 5.69978 0
M  V30 280 C 49.8014 -7.42031 4.82425 0
M  V30 281 C 49.9665 -7.9537 3.41967 0
M  V30 282 N 49.0983 -7.26471 2.36072 0 CHG=1
M  V30 283 C 49.5483 -5.82807 2.12712 0
M  V30 284 C 49.2889 -8.0385 1.04101 0
M  V30 285 C 47.6328 -7.29425 2.72663 0
M  V30 286 C 50.5538 -6.33031 5.27021 0
M  V30 287 C 50.4123 -5.87113 6.57667 0
M  V30 288 C 48.884 -3.40417 10.6936 0
M  V30 289 C 48.9191 -2.68787 9.49275 0
M  V30 290 C 50.0345 -1.92938 9.15577 0
M  V30 291 C 51.1102 -1.79048 10.0408 0
M  V30 292 C 52.344 -1.00525 9.65554 0
M  V30 293 N 52.1653 0.514012 9.53424 0 CHG=1
M  V30 294 C 51.1775 0.916266 8.45464 0
M  V30 295 C 51.7538 1.11462 10.8622 0
M  V30 296 C 53.5361 1.09989 9.13065 0
M  V30 297 C 51.0428 -2.44124 11.2789 0
M  V30 298 C 49.9435 -3.23752 11.6 0
M  V30 299 C 45.4982 -5.05934 13.2104 0
M  V30 300 C 46.0048 -4.10718 14.1022 0
M  V30 301 C 46.7785 -4.50168 15.1901 0
M  V30 302 C 47.047 -5.85768 15.422 0
M  V30 303 C 47.9342 -6.27084 16.5685 0
M  V30 304 N 47.1999 -6.50782 17.8988 0 CHG=1
M  V30 305 C 46.3065 -7.73294 17.8102 0
M  V30 306 C 48.2736 -6.76686 18.969 0
M  V30 307 C 46.3881 -5.30112 18.3133 0
M  V30 308 C 46.4819 -6.81674 14.5757 0
M  V30 309 C 45.7033 -6.42013 13.4935 0
M  V30 310 C 41.9416 -5.09145 10.4296 0
M  V30 311 C 41.6445 -6.04324 11.4058 0
M  V30 312 C 41.7253 -7.40053 11.1107 0
M  V30 313 C 42.0155 -7.84194 9.81281 0
M  V30 314 C 42.1433 -9.31293 9.49091 0
M  V30 315 N 40.8323 -10.1265 9.55327 0 CHG=1
M  V30 316 C 40.2045 -10.1282 10.9234 0
M  V30 317 C 39.8507 -9.60216 8.51811 0
M  V30 318 C 41.1943 -11.5812 9.19802 0
M  V30 319 C 42.2344 -6.8877 8.81413 0
M  V30 320 C 42.1965 -5.52867 9.11949 0
M  V30 321 C 40.9409 -0.779731 9.78615 0
M  V30 322 C 40.3016 -1.36114 8.67731 0
M  V30 323 C 40.8628 -1.26207 7.40715 0
M  V30 324 C 42.0534 -0.557095 7.21088 0
M  V30 325 C 42.6708 -0.488738 5.83632 0
M  V30 326 N 42.1434 0.62068 4.93822 0 CHG=1
M  V30 327 C 42.5441 1.98975 5.4693 0
M  V30 328 C 42.7795 0.43534 3.54914 0
M  V30 329 C 40.6319 0.568306 4.76897 0
M  V30 330 C 42.6492 0.094168 8.29602 0
M  V30 331 C 42.0836 -0.0024518 9.56579 0
M  V30 332 C 39.3289 0.706012 13.6746 0
M  V30 333 C 39.649 1.87721 12.9739 0
M  V30 334 C 40.8135 2.59023 13.2475 0
M  V30 335 C 41.6616 2.22705 14.2959 0
M  V30 336 C 42.951 2.98701 14.5415 0
M  V30 337 N 42.8 4.43685 15.0451 0 CHG=1
M  V30 338 C 42.0757 5.33951 14.0523 0
M  V30 339 C 42.1019 4.46867 16.3787 0
M  V30 340 C 44.2216 5.02049 15.2051 0
M  V30 341 C 41.3111 1.10504 15.061 0
M  V30 342 C 40.16 0.356146 14.7539 0
M  V30 343 C 34.7954 0.262985 13.6547 0
M  V30 344 C 34.009 1.22964 12.996 0
M  V30 345 C 33.872 2.43807 13.5685 0
M  V30 346 C 34.5288 2.70721 14.7518 0
M  V30 347 C 34.1756 3.93944 15.457 0
M  V30 348 N 33.1172 3.68494 16.5195 0 CHG=1
M  V30 349 C 33.796 3.25305 17.8084 0
M  V30 350 C 32.3702 4.98489 16.5701 0
M  V30 351 C 32.0867 2.59841 16.1976 0
M  V30 352 C 35.3036 1.74529 15.4345 0
M  V30 353 C 35.3778 0.484963 14.8921 0
M  V30 354 C 31.9959 -3.94988 12.3663 0
M  V30 355 C 31.6793 -4.17119 11.0251 0
M  V30 356 C 31.9494 -5.40453 10.4491 0
M  V30 357 C 32.5405 -6.42449 11.2087 0
M  V30 358 C 32.9494 -7.72047 10.5688 0
M  V30 359 N 34.3526 -7.71782 9.95292 0 CHG=1
M  V30 360 C 35.4116 -7.30653 10.9707 0
M  V30 361 C 34.6504 -9.12761 9.46679 0
M  V30 362 C 34.4188 -6.75592 8.76489 0
M  V30 363 C 32.8375 -6.20524 12.5588 0
M  V30 364 C 32.5738 -4.97559 13.1287 0
M  V30 365 C 29.1963 -4.16396 16.0227 0
M  V30 366 C 28.6401 -4.57845 17.3819 0
M  V30 367 C 27.5127 -5.59156 17.3156 0
M  V30 368 C 27.9481 -6.87148 16.5641 0
M  V30 369 C 29.2112 -7.63193 17.0202 0
M  V30 370 C 29.0991 -8.25515 18.4099 0
M  V30 371 C 27.784 -9.05961 18.5395 0
M  V30 372 C 27.4568 -10.0464 17.4062 0
M  V30 373 C 28.4363 -11.2117 17.2403 0
M  V30 374 C 28.6605 -11.8648 18.6221 0
M  V30 375 C 27.3923 -12.3003 19.3693 0
M  V30 376 C 26.7145 -13.5234 18.7534 0
M  V30 377 C 27.7787 -14.6322 18.5984 0
M  V30 378 C 28.4958 -15.0363 19.9023 0
M  V30 379 C 27.6172 -15.8826 20.8317 0
M  V30 380 C 27.0259 -17.0416 19.9996 0
M  V30 381 C 28.0791 -17.8876 19.256 0
M  V30 382 C 28.8423 -18.8363 20.1856 0
M  V30 383 C 27.7927 -19.6605 20.9729 0
M  V30 384 C 26.7462 -20.3587 20.075 0
M  V30 385 C 27.3537 -21.5205 19.2809 0
M  V30 386 C 28.0475 -22.4682 20.2883 0
M  V30 387 C 27.1367 -22.921 21.4424 0
M  V30 388 C 26.0906 -23.9429 20.988 0
M  V30 389 C 26.8339 -25.1327 20.3316 0
M  V30 390 C 27.9771 -25.7089 21.1898 0
M  V30 391 C 27.4638 -26.44 22.4375 0
M  V30 392 C 26.4742 -27.5449 21.9861 0
M  V30 393 C 27.0288 -28.4882 20.905 0
M  V30 394 C 28.0977 -29.4567 21.4357 0
M  V30 395 C 27.5204 -30.2925 22.5994 0
M  V30 396 C 26.1804 -30.9606 22.2894 0
M  V30 397 C 26.2408 -32.1306 21.2793 0
M  V30 398 C 27.2066 -33.2428 21.7774 0
M  V30 399 C 26.6822 -33.8415 23.0726 0
M  V30 400 C 27.5813 -34.8266 23.8246 0
M  V30 401 C 28.8635 -34.1834 24.3531 0
M  V30 402 C 26.6988 -35.3457 24.9528 0
M  V30 403 C 26.2294 -36.6599 24.9006 0
M  V30 404 C 25.2434 -37.0856 25.787 0
M  V30 405 C 24.6998 -36.204 26.7321 0
M  V30 406 C 23.5919 -36.6644 27.645 0
M  V30 407 N 24.0262 -37.1827 29.0083 0 CHG=1
M  V30 408 C 24.7344 -36.1264 29.8322 0
M  V30 409 C 22.7683 -37.628 29.7651 0
M  V30 410 C 24.942 -38.3997 28.852 0
M  V30 411 C 25.1994 -34.8988 26.8143 0
M  V30 412 C 26.1945 -34.4783 25.9397 0
M  V30 413 C 24.8615 -32.6812 20.9264 0
M  V30 414 C 23.6883 -32.2343 21.5478 0
M  V30 415 C 22.4674 -32.8465 21.2885 0
M  V30 416 C 22.3808 -33.9151 20.3903 0
M  V30 417 C 21.0681 -34.6321 20.1955 0
M  V30 418 N 20.0764 -33.9546 19.2338 0 CHG=1
M  V30 419 C 18.7371 -34.6973 19.3771 0
M  V30 420 C 19.8445 -32.4955 19.5417 0
M  V30 421 C 20.5625 -34.1096 17.799 0
M  V30 422 C 23.5364 -34.3322 19.7223 0
M  V30 423 C 24.7608 -33.717 19.9838 0
M  V30 424 C 28.7944 -30.2885 20.3777 0
M  V30 425 C 28.3963 -30.3079 19.0355 0
M  V30 426 C 28.9968 -31.1816 18.1358 0
M  V30 427 C 30.017 -32.0451 18.554 0
M  V30 428 C 30.6312 -33.0218 17.5846 0
M  V30 429 N 31.8658 -32.4901 16.8386 0 CHG=1
M  V30 430 C 33.0187 -32.2435 17.8 0
M  V30 431 C 32.2952 -33.5852 15.8469 0
M  V30 432 C 31.5527 -31.2317 16.0654 0
M  V30 433 C 30.4612 -31.9837 19.879 0
M  V30 434 C 29.8681 -31.1024 20.7737 0
M  V30 435 C 28.5373 -26.925 23.3983 0
M  V30 436 C 29.9048 -26.8734 23.1043 0
M  V30 437 C 30.8239 -27.5431 23.9096 0
M  V30 438 C 30.3976 -28.2588 25.0367 0
M  V30 439 C 31.3725 -29.113 25.812 0
M  V30 440 N 32.1535 -28.3957 26.9125 0 CHG=1
M  V30 441 C 33.2105 -29.3873 27.4354 0
M  V30 442 C 32.863 -27.161 26.4099 0
M  V30 443 C 31.2312 -28.0316 28.0698 0
M  V30 444 C 29.0504 -28.2089 25.4016 0
M  V30 445 C 28.1346 -27.5307 24.6002 0
M  V30 446 C 25.0587 -24.3152 22.0405 0
M  V30 447 C 25.1468 -23.9039 23.3775 0
M  V30 448 C 24.2563 -24.391 24.3306 0
M  V30 449 C 23.2409 -25.2838 23.9678 0
M  V30 450 C 22.3133 -25.8474 25.0173 0
M  V30 451 N 21.0716 -24.9979 25.3031 0 CHG=1
M  V30 452 C 20.1459 -24.9696 24.0959 0
M  V30 453 C 20.3179 -25.663 26.4705 0
M  V30 454 C 21.4265 -23.5861 25.7153 0
M  V30 455 C 23.098 -25.6358 22.6217 0
M  V30 456 C 23.9855 -25.1412 21.6684 0
M  V30 457 C 26.4272 -22.2108 18.2921 0
M  V30 458 C 25.0556 -21.9422 18.2103 0
M  V30 459 C 24.2231 -22.7445 17.4287 0
M  V30 460 C 24.744 -23.8185 16.6932 0
M  V30 461 C 23.8248 -24.7604 15.9496 0
M  V30 462 N 23.4261 -24.3254 14.5399 0 CHG=1
M  V30 463 C 22.3631 -25.3222 14.0338 0
M  V30 464 C 22.8187 -22.9377 14.5136 0
M  V30 465 C 24.6191 -24.3893 13.5986 0
M  V30 466 C 26.1261 -24.0247 16.6903 0
M  V30 467 C 26.9571 -23.2167 17.4653 0
M  V30 468 C 29.9511 -19.6412 19.5178 0
M  V30 469 C 30.1426 -19.673 18.1286 0
M  V30 470 C 31.0445 -20.5673 17.5521 0
M  V30 471 C 31.801 -21.4353 18.3499 0
M  V30 472 C 32.7231 -22.4519 17.7135 0
M  V30 473 N 34.1309 -21.9376 17.3934 0 CHG=1
M  V30 474 C 34.8958 -21.6434 18.6765 0
M  V30 475 C 34.8749 -23.0572 16.6396 0
M  V30 476 C 34.1054 -20.7113 16.5104 0
M  V30 477 C 31.6838 -21.3446 19.7398 0
M  V30 478 C 30.7855 -20.4437 20.3149 0
M  V30 479 C 28.2746 -16.3215 22.1347 0
M  V30 480 C 29.6454 -16.1833 22.3846 0
M  V30 481 C 30.2356 -16.76 23.5091 0
M  V30 482 C 29.4637 -17.478 24.4302 0
M  V30 483 C 30.1161 -18.1434 25.6224 0
M  V30 484 N 30.2158 -17.2696 26.8724 0 CHG=1
M  V30 485 C 28.8336 -16.954 27.4328 0
M  V30 486 C 30.9849 -18.069 27.9463 0
M  V30 487 C 30.971 -15.9854 26.6163 0
M  V30 488 C 28.0815 -17.5563 24.2291 0
M  V30 489 C 27.4943 -16.9683 23.1067 0
M  V30 490 C 25.4245 -13.939 19.4503 0
M  V30 491 C 25.0128 -13.4092 20.6817 0
M  V30 492 C 23.8865 -13.9058 21.3414 0
M  V30 493 C 23.1348 -14.9518 20.7929 0
M  V30 494 C 21.954 -15.5101 21.5647 0
M  V30 495 N 20.5697 -15.192 20.999 0 CHG=1
M  V30 496 C 20.2686 -15.9847 19.7294 0
M  V30 497 C 19.5215 -15.6184 22.053 0
M  V30 498 C 20.4001 -13.7128 20.734 0
M  V30 499 C 23.5184 -15.4579 19.5454 0
M  V30 500 C 24.623 -14.9322 18.8684 0
M  V30 501 C 28.0642 -12.1716 16.1087 0
M  V30 502 C 26.8378 -12.107 15.4268 0
M  V30 503 C 26.474 -13.0862 14.4993 0
M  V30 504 C 27.3262 -14.1501 14.2023 0
M  V30 505 C 26.8822 -15.2389 13.2469 0
M  V30 506 N 27.1465 -14.9772 11.766 0 CHG=1
M  V30 507 C 26.591 -13.6463 11.2988 0
M  V30 508 C 28.6336 -15.0515 11.4611 0
M  V30 509 C 26.4414 -16.0879 10.9519 0
M  V30 510 C 28.5854 -14.1833 14.8171 0
M  V30 511 C 28.9531 -13.195 15.7412 0
M  V30 512 C 30.3127 -8.9948 18.9575 0
M  V30 513 C 30.352 -9.242 20.3441 0
M  V30 514 C 31.3484 -10.0317 20.9153 0
M  V30 515 C 32.3658 -10.5741 20.1227 0
M  V30 516 C 33.412 -11.4607 20.77 0
M  V30 517 N 33.3028 -12.965 20.4811 0 CHG=1
M  V30 518 C 33.6048 -13.2965 19.0293 0
M  V30 519 C 34.3422 -13.6928 21.3552 0
M  V30 520 C 31.9291 -13.4903 20.8425 0
M  V30 521 C 32.3699 -10.2752 18.7506 0
M  V30 522 C 31.356 -9.49545 18.1735 0
M  V30 523 C 26.8519 -5.83865 18.6648 0
M  V30 524 C 25.5259 -6.29603 18.6806 0
M  V30 525 C 24.9212 -6.67774 19.8759 0
M  V30 526 C 25.633 -6.62633 21.0832 0
M  V30 527 C 25.0025 -7.10432 22.3698 0
M  V30 528 N 25.1074 -8.60227 22.6124 0 CHG=1
M  V30 529 C 24.3552 -8.91392 23.9237 0
M  V30 530 C 24.4653 -9.40902 21.4988 0
M  V30 531 C 26.5569 -9.02521 22.7858 0
M  V30 532 C 26.9478 -6.14375 21.0771 0
M  V30 533 C 27.5321 -5.71385 19.8868 0
M  V30 534 C 27.1314 -4.13405 14.301 0
M  V30 535 C 25.8372 -3.57565 14.3198 0
M  V30 536 C 24.7187 -4.27747 13.886 0
M  V30 537 C 24.8461 -5.55251 13.3457 0
M  V30 538 C 23.6168 -6.27239 12.8575 0
M  V30 539 N 23.1963 -5.95366 11.4266 0 CHG=1
M  V30 540 C 21.8341 -6.61756 11.1615 0
M  V30 541 C 23.067 -4.46628 11.151 0
M  V30 542 C 24.2054 -6.54397 10.4381 0
M  V30 543 C 26.1262 -6.09358 13.2208 0
M  V30 544 C 27.2482 -5.38611 13.6755 0
M  V30 545 C 27.0437 -2.05496 16.5826 0
M  V30 546 C 26.6126 -0.893052 17.1634 0
M  V30 547 C 22.852 1.37323 15.368 0
M  V30 548 C 21.676 1.4883 16.1184 0
M  V30 549 C 20.8776 0.369245 16.3677 0
M  V30 550 C 21.2548 -0.892045 15.8921 0
M  V30 551 C 20.3649 -2.09061 16.0731 0
M  V30 552 N 19.6585 -2.57502 14.7905 0 CHG=1
M  V30 553 C 20.5942 -3.06211 13.7131 0
M  V30 554 C 18.7574 -3.75198 15.165 0
M  V30 555 C 18.8447 -1.42545 14.2033 0
M  V30 556 C 22.4492 -1.01213 15.183 0
M  V30 557 C 23.2087 0.105002 14.8843 0
M  V30 558 C 25.0321 4.75323 13.0445 0
M  V30 559 C 24.3093 4.19493 11.98 0
M  V30 560 C 24.863 3.21777 11.1659 0
M  V30 561 C 26.181 2.80391 11.3565 0
M  V30 562 C 26.7624 1.78136 10.422 0
M  V30 563 N 27.2379 2.30902 9.07731 0 CHG=1
M  V30 564 C 28.4125 3.2593 9.26068 0
M  V30 565 C 27.6717 1.12938 8.21202 0
M  V30 566 C 26.136 3.05543 8.30685 0
M  V30 567 C 26.9377 3.39521 12.3757 0
M  V30 568 C 26.371 4.37244 13.2011 0
M  V30 569 C 20.6425 7.54937 12.6795 0
M  V30 570 C 20.0841 6.85275 11.6044 0
M  V30 571 C 20.1516 7.36097 10.3067 0
M  V30 572 C 20.8037 8.57508 10.0536 0
M  V30 573 C 20.832 9.16682 8.66567 0
M  V30 574 N 19.8787 10.3407 8.43811 0 CHG=1
M  V30 575 C 20.1977 11.5463 9.34144 0
M  V30 576 C 20.0512 10.8205 6.98947 0
M  V30 577 C 18.4394 9.92386 8.65796 0
M  V30 578 C 21.3894 9.26352 11.1195 0
M  V30 579 C 21.2772 8.78327 12.4168 0
M  V30 580 C 19.3354 7.26587 17.0448 0
M  V30 581 C 18.7146 8.46018 16.6505 0
M  V30 582 C 19.3784 9.67403 16.763 0
M  V30 583 C 20.6525 9.73839 17.3312 0
M  V30 584 C 21.3684 11.0586 17.4316 0
M  V30 585 N 20.8824 11.9931 18.5254 0 CHG=1
M  V30 586 C 21.0274 11.3519 19.8954 0
M  V30 587 C 21.7299 13.2691 18.4704 0
M  V30 588 C 19.4219 12.4174 18.3337 0
M  V30 589 C 21.2404 8.56378 17.8157 0
M  V30 590 C 20.5824 7.34315 17.6831 0
M  V30 591 C 14.4971 5.62723 15.5065 0
M  V30 592 C 13.987 6.87193 15.1315 0
M  V30 593 C 13.0991 7.54593 15.9689 0
M  V30 594 C 12.706 6.99554 17.1987 0
M  V30 595 C 11.7018 7.69562 18.0808 0
M  V30 596 N 10.3125 7.05154 18.1472 0 CHG=1
M  V30 597 C 9.4216 7.92045 19.0508 0
M  V30 598 C 9.66863 6.97602 16.7772 0
M  V30 599 C 10.3332 5.65421 18.7475 0
M  V30 600 C 13.2464 5.76913 17.5844 0
M  V30 601 C 14.0975 5.07906 16.7368 0
M  V30 602 C 15.862 2.23068 12.864 0
M  V30 603 C 14.5573 1.76146 13.1093 0
M  V30 604 C 14.2515 1.03352 14.2482 0
M  V30 605 C 15.2486 0.69836 15.1576 0
M  V30 606 C 14.8938 -0.110229 16.3795 0
M  V30 607 N 14.5845 -1.59099 16.1071 0 CHG=1
M  V30 608 C 13.2616 -1.7811 15.3429 0
M  V30 609 C 15.6704 -2.23964 15.3227 0
M  V30 610 C 14.4297 -2.29536 17.458 0
M  V30 611 C 16.5639 1.10983 14.898 0
M  V30 612 C 16.8743 1.83752 13.745 0
M  V30 613 C 12.73 3.74192 9.01453 0
M  V30 614 C 11.5427 3.31101 9.61773 0
M  V30 615 C 10.913 2.14209 9.18163 0
M  V30 616 C 11.4864 1.35325 8.17882 0
M  V30 617 C 10.7577 0.142906 7.64275 0
M  V30 618 N 10.0458 0.339918 6.30836 0 CHG=1
M  V30 619 C 9.42095 -1.00366 5.89422 0
M  V30 620 C 8.92246 1.36543 6.44341 0
M  V30 621 C 10.9707 0.773247 5.17528 0
M  V30 622 C 12.6952 1.75767 7.60467 0
M  V30 623 C 13.2798 2.96061 7.9902 0
M  V30 624 C 13.9685 8.04561 8.58349 0
M  V30 625 C 13.3335 7.86076 7.34471 0
M  V30 626 C 14.0268 7.34642 6.25862 0
M  V30 627 C 15.3843 7.0467 6.36726 0
M  V30 628 C 16.127 6.51428 5.17144 0
M  V30 629 N 16.5329 7.56054 4.15114 0 CHG=1
M  V30 630 C 15.3162 8.2476 3.50676 0
M  V30 631 C 17.4241 8.6163 4.76833 0
M  V30 632 C 17.3045 6.85856 3.02603 0
M  V30 633 C 16.0434 7.28926 7.57937 0
M  V30 634 C 15.3469 7.80674 8.66867 0
M  V30 635 C 9.0116 9.78137 9.37699 0
M  V30 636 C 8.49069 9.43935 8.12712 0
M  V30 637 C 8.26209 10.4232 7.16455 0
M  V30 638 C 8.59558 11.7584 7.41881 0
M  V30 639 C 8.3151 12.8276 6.38726 0
M  V30 640 N 7.19093 13.8006 6.73146 0 CHG=1
M  V30 641 C 7.45601 14.6322 7.97584 0
M  V30 642 C 7.04939 14.7815 5.55217 0
M  V30 643 C 5.86885 13.0575 6.89784 0
M  V30 644 C 9.16584 12.09 8.65123 0
M  V30 645 C 9.33017 11.1236 9.63119 0
M  V30 646 C 8.40875 7.78017 13.3561 0
M  V30 647 C 7.49918 8.83652 13.5235 0
M  V30 648 C 7.93876 10.1024 13.9233 0
M  V30 649 C 9.29376 10.3412 14.1768 0
M  V30 650 C 9.79455 11.731 14.4843 0
M  V30 651 N 9.73007 12.1444 15.9517 0 CHG=1
M  V30 652 C 10.3004 13.5671 16.0739 0
M  V30 653 C 8.27112 12.1966 16.436 0
M  V30 654 C 10.5199 11.2281 16.8322 0
M  V30 655 C 10.1848 9.26731 14.108 0
M  V30 656 C 9.7423 7.9975 13.7349 0
M  V30 657 C 3.81407 5.06294 12.4944 0
M  V30 658 C 2.73982 5.96491 12.5304 0
M  V30 659 C 2.02321 6.19305 13.7066 0
M  V30 660 C 2.36567 5.53155 14.8878 0
M  V30 661 C 1.58619 5.8045 16.1532 0
M  V30 662 N 0.646487 4.69587 16.6208 0 CHG=1
M  V30 663 C -0.43552 4.44767 15.5631 0
M  V30 664 C 1.3493 3.39139 16.9251 0
M  V30 665 C -0.0460036 5.1745 17.9075 0
M  V30 666 C 3.42847 4.61995 14.8585 0
M  V30 667 C 4.1154 4.36221 13.6727 0
M  V30 668 C 3.37297 6.47426 7.13349 0
M  V30 669 C 3.22163 5.58182 6.06291 0
M  V30 670 C 1.9693 5.365 5.48543 0
M  V30 671 C 0.837972 6.03553 5.96796 0
M  V30 672 C -0.51538 5.83396 5.32181 0
M  V30 673 N -1.40688 4.77524 5.98212 0 CHG=1
M  V30 674 C -0.787687 3.39552 5.87439 0
M  V30 675 C -1.70448 5.09653 7.43584 0
M  V30 676 C -2.7476 4.76403 5.21982 0
M  V30 677 C 0.982502 6.9026 7.05743 0
M  V30 678 C 2.23217 7.1151 7.63626 0
M  V30 679 H 6.00374 8.32823 8.45414 0
M  V30 680 H 4.32682 8.49878 8.93899 0
M  V30 681 H 4.79756 8.86025 7.27627 0
M  V30 682 H 5.4682 6.55875 6.87289 0
M  V30 683 H 6.19504 5.88177 9.03443 0
M  V30 684 H 5.06893 4.68848 8.40879 0
M  V30 685 H 3.2549 5.60503 9.81178 0
M  V30 686 H 4.33345 6.85018 10.4369 0
M  V30 687 H 4.51725 3.83879 10.9001 0
M  V30 688 H 6.7826 4.79069 10.7275 0
M  V30 689 H 6.47621 4.19155 12.3194 0
M  V30 690 H 5.97626 6.4808 13.1687 0
M  V30 691 H 6.26636 7.15447 11.5747 0
M  V30 692 H 8.28345 5.67403 13.3232 0
M  V30 693 H 8.77796 5.29689 10.9518 0
M  V30 694 H 10.0123 6.23135 11.6796 0
M  V30 695 H 7.74625 7.35192 9.93707 0
M  V30 696 H 9.3179 6.89704 9.34669 0
M  V30 697 H 8.75577 9.1565 11.3123 0
M  V30 698 H 11.0339 8.08211 11.5542 0
M  V30 699 H 11.0971 9.78715 11.2366 0
M  V30 700 H 11.5978 9.4267 8.88344 0
M  V30 701 H 11.284 7.70715 9.03886 0
M  V30 702 H 13.5873 9.27404 10.2749 0
M  V30 703 H 12.9568 7.53956 11.8566 0
M  V30 704 H 14.4514 7.10949 11.1442 0
M  V30 705 H 11.7296 6.00974 10.2315 0
M  V30 706 H 12.6813 5.28086 11.4744 0
M  V30 707 H 13.536 5.58472 8.54366 0
M  V30 708 H 15.458 5.51411 10.1944 0
M  V30 709 H 15.5052 4.23184 9.02514 0
M  V30 710 H 14.5378 2.62714 10.5334 0
M  V30 711 H 14.1215 3.88506 11.6905 0
M  V30 712 H 16.8891 2.82599 11.09 0
M  V30 713 H 17.0591 5.21777 11.5223 0
M  V30 714 H 17.7084 4.34407 12.8527 0
M  V30 715 H 14.9114 5.61782 12.7654 0
M  V30 716 H 16.3256 6.40636 13.385 0
M  V30 717 H 15.0491 3.89098 14.5528 0
M  V30 718 H 17.5215 4.10027 14.9642 0
M  V30 719 H 16.5955 4.02503 16.4265 0
M  V30 720 H 16.6983 6.45891 16.7338 0
M  V30 721 H 17.439 6.65458 15.1578 0
M  V30 722 H 18.6639 5.33375 17.6102 0
M  V30 723 H 19.4442 4.09596 15.6919 0
M  V30 724 H 20.7413 5.06352 16.26 0
M  V30 725 H 18.9254 5.79075 13.8925 0
M  V30 726 H 20.3912 4.88718 13.7366 0
M  V30 727 H 20.1745 7.79573 14.6831 0
M  V30 728 H 22.1631 6.54733 15.5991 0
M  V30 729 H 22.6093 7.93334 14.6572 0
M  V30 730 H 23.0362 6.57254 12.6554 0
M  V30 731 H 22.3971 5.15338 13.4667 0
M  V30 732 H 24.9808 6.60941 14.0922 0
M  V30 733 H 24.0506 5.88251 16.1888 0
M  V30 734 H 25.3664 4.85493 15.8016 0
M  V30 735 H 22.3975 4.14797 15.3505 0
M  V30 736 H 23.2709 3.7837 16.7966 0
M  V30 737 H 23.7664 2.64846 13.9993 0
M  V30 738 H 25.9082 2.954 15.2073 0
M  V30 739 H 25.564 1.29302 14.9404 0
M  V30 740 H 24.62 1.12373 17.2536 0
M  V30 741 H 24.9534 2.82503 17.5232 0
M  V30 742 H 27.686 2.99653 16.1586 0
M  V30 743 H 28.7185 2.50385 17.4255 0
M  V30 744 H 26.3613 4.49226 17.6104 0
M  V30 745 H 28.0346 4.88815 17.3655 0
M  V30 746 H 26.782 3.577 19.7954 0
M  V30 747 H 29.0208 2.60451 19.3962 0
M  V30 748 H 28.949 3.46926 20.8399 0
M  V30 749 H 30.0064 4.56002 18.1415 0
M  V30 750 H 31.0118 3.63589 19.2346 0
M  V30 751 H 29.8922 6.39969 19.7373 0
M  V30 752 H 29.5082 5.20057 21.7064 0
M  V30 753 H 30.7927 6.22606 22.012 0
M  V30 754 H 30.8681 3.11379 21.522 0
M  V30 755 H 30.9503 3.89172 23.0574 0
M  V30 756 H 32.8098 3.87086 20.7812 0
M  V30 757 H 32.6962 6.30887 21.6288 0
M  V30 758 H 34.2138 5.72608 21.9735 0
M  V30 759 H 31.7201 5.57518 23.8505 0
M  V30 760 H 32.6936 6.97292 23.7343 0
M  V30 761 H 33.6547 4.18927 24.5774 0
M  V30 762 H 35.439 5.31352 23.3565 0
M  V30 763 H 35.8359 5.2939 24.9796 0
M  V30 764 H 34.5016 7.68867 23.4267 0
M  V30 765 H 36.1748 7.53158 23.6582 0
M  V30 766 H 34.0928 7.7477 25.8882 0
M  V30 767 H 35.8705 6.26845 26.6455 0
M  V30 768 H 36.073 7.72635 27.4463 0
M  V30 769 H 37.5593 6.79992 24.8412 0
M  V30 770 H 38.1679 6.57497 26.4062 0
M  V30 771 H 37.5372 9.28258 25.1176 0
M  V30 772 H 37.0646 9.42498 27.5032 0
M  V30 773 H 38.4963 10.2649 27.2285 0
M  V30 774 H 38.2296 7.30647 28.2178 0
M  V30 775 H 38.3637 8.63653 29.2598 0
M  V30 776 H 40.4458 7.84607 27.1583 0
M  V30 777 H 40.49 10.2458 27.4047 0
M  V30 778 H 41.8542 9.66007 28.2186 0
M  V30 779 H 39.1107 10.4627 29.4638 0
M  V30 780 H 40.4697 11.4829 29.3913 0
M  V30 781 H 40.3593 8.79936 30.8661 0
M  V30 782 H 42.6136 9.15389 30.041 0
M  V30 783 H 42.6519 9.4107 31.7191 0
M  V30 784 H 42.4503 11.5827 29.5069 0
M  V30 785 H 43.9157 11.0615 30.206 0
M  V30 786 H 41.6128 12.3715 31.7402 0
M  V30 787 H 42.7518 10.8533 33.2249 0
M  V30 788 H 43.2225 12.4255 33.6962 0
M  V30 789 H 44.7949 10.4616 31.9122 0
M  V30 790 H 45.0068 10.6317 33.597 0
M  V30 791 H 45.5228 12.8312 31.5116 0
M  V30 792 H 44.8346 13.7985 33.7219 0
M  V30 793 H 46.483 14.2021 33.3516 0
M  V30 794 H 47.2973 12.3411 34.7343 0
M  V30 795 H 45.658 11.7947 35.0246 0
M  V30 796 H 46.7639 14.4254 36.0499 0
M  V30 797 H 44.1166 12.9811 36.6539 0
M  V30 798 H 44.3013 14.5296 35.8269 0
M  V30 799 H 44.7462 14.3798 37.532 0
M  V30 800 H 48.5666 13.9077 37.4557 0
M  V30 801 H 49.8314 12.3265 38.8103 0
M  V30 802 H 50.227 9.99695 39.3702 0
M  V30 803 H 49.0068 8.76045 39.0755 0
M  V30 804 H 47.2739 8.29641 40.7884 0
M  V30 805 H 46.7615 10.0092 40.9341 0
M  V30 806 H 47.3482 9.13437 42.3736 0
M  V30 807 H 49.6491 7.69465 41.1309 0
M  V30 808 H 49.6596 8.61303 42.6758 0
M  V30 809 H 50.8676 8.98747 41.3905 0
M  V30 810 H 48.42 11.7668 41.2675 0
M  V30 811 H 50.1675 11.3541 41.4007 0
M  V30 812 H 49.0262 10.9289 42.7266 0
M  V30 813 H 46.6228 9.44496 38.474 0
M  V30 814 H 45.3462 11.0353 37.144 0
M  V30 815 H 46.763 9.66377 32.4764 0
M  V30 816 H 49.0291 8.91281 32.175 0
M  V30 817 H 51.4352 9.65043 32.47 0
M  V30 818 H 51.9598 11.2413 31.9058 0
M  V30 819 H 53.015 8.40403 31.3034 0
M  V30 820 H 53.7638 9.99464 30.902 0
M  V30 821 H 53.4347 8.78919 29.6013 0
M  V30 822 H 50.6819 7.94772 30.6678 0
M  V30 823 H 51.1849 8.25327 28.9734 0
M  V30 824 H 49.7946 9.13079 29.6406 0
M  V30 825 H 52.4741 11.6672 29.6449 0
M  V30 826 H 50.7889 11.3008 29.127 0
M  V30 827 H 52.155 10.4401 28.365 0
M  V30 828 H 50.3058 12.977 31.4441 0
M  V30 829 H 48.0174 13.7427 31.7346 0
M  V30 830 H 43.961 13.2186 29.2462 0
M  V30 831 H 44.8034 15.4572 28.8738 0
M  V30 832 H 45.5762 17.5243 29.9057 0
M  V30 833 H 45.0399 18.0237 31.5148 0
M  V30 834 H 42.9361 19.2305 31.7983 0
M  V30 835 H 41.9461 18.0325 30.894 0
M  V30 836 H 41.9731 19.7275 30.3561 0
M  V30 837 H 44.8954 20.2597 30.7115 0
M  V30 838 H 43.8906 20.6712 29.2706 0
M  V30 839 H 45.3994 19.7128 29.0703 0
M  V30 840 H 42.6385 17.2777 28.6873 0
M  V30 841 H 44.1351 17.9182 27.9354 0
M  V30 842 H 42.6753 18.9575 28.0985 0
M  V30 843 H 43.2524 16.7 32.7089 0
M  V30 844 H 42.3729 14.4676 33.08 0
M  V30 845 H 38.9044 11.9981 31.1061 0
M  V30 846 H 38.2451 13.0675 33.1696 0
M  V30 847 H 39.0144 13.5174 35.4995 0
M  V30 848 H 39.7983 12.2618 36.4617 0
M  V30 849 H 37.4654 14.1258 37.1203 0
M  V30 850 H 38.3428 13.0089 38.2276 0
M  V30 851 H 36.5505 12.89 38.0552 0
M  V30 852 H 36.5267 13.2723 35.0066 0
M  V30 853 H 35.5692 12.124 36.0074 0
M  V30 854 H 36.5646 11.5086 34.6672 0
M  V30 855 H 38.5413 10.6258 37.6556 0
M  V30 856 H 37.7811 9.99562 36.1565 0
M  V30 857 H 36.7465 10.5431 37.5038 0
M  V30 858 H 40.4221 10.1054 35.4372 0
M  V30 859 H 41.0692 9.00203 33.367 0
M  V30 860 H 39.1096 6.55273 30.1603 0
M  V30 861 H 40.3113 5.08753 31.662 0
M  V30 862 H 42.4591 4.60914 32.736 0
M  V30 863 H 43.9939 5.04912 31.975 0
M  V30 864 H 45.0178 3.58672 30.3093 0
M  V30 865 H 43.5491 3.49261 29.2778 0
M  V30 866 H 44.2678 1.99665 29.9148 0
M  V30 867 H 44.8809 2.94897 32.688 0
M  V30 868 H 44.079 1.40078 32.2357 0
M  V30 869 H 43.2865 2.51293 33.4078 0
M  V30 870 H 41.3922 2.91334 30.2561 0
M  V30 871 H 41.2546 2.57718 32.0157 0
M  V30 872 H 42.0664 1.40541 30.9153 0
M  V30 873 H 44.0192 6.04467 29.6604 0
M  V30 874 H 42.8112 7.50001 28.1245 0
M  V30 875 H 39.828 6.6416 24.7321 0
M  V30 876 H 42.1161 6.8819 23.9733 0
M  V30 877 H 44.1606 8.27629 24.2329 0
M  V30 878 H 44.0695 10.033 24.3776 0
M  V30 879 H 45.8336 8.28202 22.6047 0
M  V30 880 H 45.9163 10.0658 22.8363 0
M  V30 881 H 45.746 9.36963 21.1789 0
M  V30 882 H 43.6945 7.22363 21.9738 0
M  V30 883 H 43.7087 8.27672 20.5199 0
M  V30 884 H 42.278 8.25515 21.5771 0
M  V30 885 H 43.9195 11.4429 22.4515 0
M  V30 886 H 42.3879 10.6742 21.9023 0
M  V30 887 H 43.7864 10.7371 20.7965 0
M  V30 888 H 41.8631 11.1633 24.5043 0
M  V30 889 H 39.5595 10.9309 25.2441 0
M  V30 890 H 35.5544 9.83868 23.4293 0
M  V30 891 H 35.7766 12.2515 23.6586 0
M  V30 892 H 36.2969 14.1082 25.1924 0
M  V30 893 H 35.9794 13.987 26.9249 0
M  V30 894 H 33.7494 14.479 27.8185 0
M  V30 895 H 32.9121 13.3344 26.7152 0
M  V30 896 H 32.4423 15.0508 26.7137 0
M  V30 897 H 35.1834 16.2446 26.8917 0
M  V30 898 H 33.8559 16.7413 25.775 0
M  V30 899 H 35.4806 16.3248 25.1173 0
M  V30 900 H 33.3191 13.4354 24.3031 0
M  V30 901 H 34.4629 14.6405 23.6273 0
M  V30 902 H 32.862 15.1553 24.2768 0
M  V30 903 H 34.8206 11.9623 27.858 0
M  V30 904 H 34.5687 9.55455 27.636 0
M  V30 905 H 31.5115 6.81719 25.6324 0
M  V30 906 H 30.9423 7.30442 27.9053 0
M  V30 907 H 31.9196 7.48235 30.2498 0
M  V30 908 H 32.9947 6.21312 30.8446 0
M  V30 909 H 30.3907 7.30203 32.0225 0
M  V30 910 H 31.5566 6.14786 32.7632 0
M  V30 911 H 29.8174 5.69468 32.5992 0
M  V30 912 H 29.476 6.8582 29.7792 0
M  V30 913 H 28.8471 5.31722 30.4644 0
M  V30 914 H 29.8207 5.28508 28.9788 0
M  V30 915 H 32.1779 4.0921 31.5477 0
M  V30 916 H 31.4498 3.74605 29.9457 0
M  V30 917 H 30.4273 3.67708 31.4092 0
M  V30 918 H 34.1074 4.71322 29.2799 0
M  V30 919 H 34.7077 4.21563 26.9636 0
M  V30 920 H 32.3131 1.9408 23.5971 0
M  V30 921 H 34.0284 0.46483 24.5192 0
M  V30 922 H 36.3447 0.00862404 24.946 0
M  V30 923 H 37.6187 1.05378 24.3001 0
M  V30 924 H 38.7582 0.459339 22.2086 0
M  V30 925 H 37.2461 0.352308 21.2399 0
M  V30 926 H 38.3206 -1.05377 21.3372 0
M  V30 927 H 39.0109 -0.949169 24.2185 0
M  V30 928 H 38.4696 -2.3955 23.295 0
M  V30 929 H 37.6171 -1.93014 24.8088 0
M  V30 930 H 35.3491 -0.923191 22.0544 0
M  V30 931 H 35.4642 -1.84988 23.591 0
M  V30 932 H 36.3626 -2.38421 22.1234 0
M  V30 933 H 37.0571 2.50065 22.2014 0
M  V30 934 H 35.3534 3.92671 21.2462 0
M  V30 935 H 33.4826 4.96287 19.6964 0
M  V30 936 H 35.344 6.01608 18.8292 0
M  V30 937 H 36.4242 7.64804 17.8111 0
M  V30 938 H 35.8638 9.29547 17.9828 0
M  V30 939 H 34.2601 7.08317 15.4158 0
M  V30 940 H 35.9089 6.39295 15.5776 0
M  V30 941 H 35.4854 7.40486 14.1628 0
M  V30 942 H 33.9301 9.49598 15.6631 0
M  V30 943 H 35.1923 9.80795 14.4374 0
M  V30 944 H 35.3301 10.5519 16.0783 0
M  V30 945 H 37.8107 7.7926 15.9459 0
M  V30 946 H 37.6134 9.56136 16.2057 0
M  V30 947 H 37.3397 8.83459 14.5711 0
M  V30 948 H 32.898 9.3441 17.6987 0
M  V30 949 H 30.9341 8.23723 18.6643 0
M  V30 950 H 27.0274 4.64937 21.9725 0
M  V30 951 H 27.0961 6.7441 23.202 0
M  V30 952 H 26.9813 9.35701 23.051 0
M  V30 953 H 27.5744 10.1196 21.5613 0
M  V30 954 H 29.4034 7.30095 23.3615 0
M  V30 955 H 28.6404 8.32692 24.6237 0
M  V30 956 H 30.3996 8.45201 24.267 0
M  V30 957 H 30.1009 8.32361 21.22 0
M  V30 958 H 31.1616 9.40266 22.1519 0
M  V30 959 H 29.9672 10.0951 20.9916 0
M  V30 960 H 28.5085 10.747 24.3209 0
M  V30 961 H 29.0711 11.4968 22.7739 0
M  V30 962 H 30.263 10.7887 23.9181 0
M  V30 963 H 27.6495 8.89901 19.4957 0
M  V30 964 H 27.5454 6.81579 18.2601 0
M  V30 965 H 24.5215 1.87332 19.3518 0
M  V30 966 H 24.1543 0.763943 21.4221 0
M  V30 967 H 25.0565 -0.505966 23.3691 0
M  V30 968 H 26.6363 -1.30863 23.2587 0
M  V30 969 H 24.0422 -1.67408 20.4861 0
M  V30 970 H 23.112 -1.45422 22.0217 0
M  V30 971 H 23.3009 -3.07689 21.2678 0
M  V30 972 H 26.2755 -2.63714 20.5212 0
M  V30 973 H 25.4422 -4.05891 21.1383 0
M  V30 974 H 26.8737 -3.41531 22.0308 0
M  V30 975 H 23.9395 -2.51905 24.0879 0
M  V30 976 H 25.5688 -3.30344 24.1053 0
M  V30 977 H 24.2157 -4.06697 23.2137 0
M  V30 978 H 28.1577 -0.852185 21.318 0
M  V30 979 H 28.5623 0.287261 19.1961 0
M  V30 980 H 28.4491 1.2901 15.3052 0
M  V30 981 H 29.0307 -0.702742 14.1769 0
M  V30 982 H 28.9634 -2.55381 12.9474 0
M  V30 983 H 29.5268 -4.17692 13.2259 0
M  V30 984 H 31.2333 -3.4231 14.8552 0
M  V30 985 H 30.7274 -1.77437 14.6825 0
M  V30 986 H 31.2931 -1.91538 12.2366 0
M  V30 987 H 33.4927 -2.60605 14.2842 0
M  V30 988 H 32.7384 -1.05385 14.0214 0
M  V30 989 H 33.4751 -1.15907 11.5846 0
M  V30 990 H 34.3288 -2.65858 11.9223 0
M  V30 991 H 35.7605 -1.63259 13.5375 0
M  V30 992 H 35.4643 0.121361 11.0078 0
M  V30 993 H 36.399 -1.33044 11.1418 0
M  V30 994 H 36.8539 1.38665 12.5812 0
M  V30 995 H 37.7818 0.730402 11.2797 0
M  V30 996 H 37.6311 -0.361502 14.1614 0
M  V30 997 H 37.6483 -2.26507 12.7557 0
M  V30 998 H 39.1911 -2.12977 13.475 0
M  V30 999 H 38.391 -1.18714 10.6207 0
M  V30 1000 H 39.1284 -2.69837 10.9733 0
M  V30 1001 H 40.325 0.0601939 11.4882 0
M  V30 1002 H 41.1213 -1.43238 13.2332 0
M  V30 1003 H 42.4065 -1.16757 12.1622 0
M  V30 1004 H 40.4841 -3.61136 12.2326 0
M  V30 1005 H 42.05 -3.54979 12.9659 0
M  V30 1006 H 41.4111 -3.19333 9.96246 0
M  V30 1007 H 43.3864 -1.90169 10.4831 0
M  V30 1008 H 43.9063 -3.26872 9.6147 0
M  V30 1009 H 43.9473 -2.82782 12.6926 0
M  V30 1010 H 45.2895 -2.59213 11.6556 0
M  V30 1011 H 43.8323 -5.23606 12.0837 0
M  V30 1012 H 44.6545 -5.19524 9.82032 0
M  V30 1013 H 45.6605 -6.25914 10.6906 0
M  V30 1014 H 46.232 -3.29252 9.97912 0
M  V30 1015 H 46.7986 -4.64049 9.08623 0
M  V30 1016 H 47.478 -4.06469 12.0124 0
M  V30 1017 H 47.5174 -6.44642 11.704 0
M  V30 1018 H 49.1552 -5.95316 11.7594 0
M  V30 1019 H 47.4525 -6.5929 9.25661 0
M  V30 1020 H 48.562 -7.67607 9.99131 0
M  V30 1021 H 49.3023 -4.97999 8.77531 0
M  V30 1022 H 50.8526 -5.46819 10.5403 0
M  V30 1023 H 51.6908 -5.70129 9.06263 0
M  V30 1024 H 50.4345 -7.86178 10.8718 0
M  V30 1025 H 52.0998 -7.42413 10.8552 0
M  V30 1026 H 50.5771 -8.60136 8.48344 0
M  V30 1027 H 52.34 -7.22486 7.62233 0
M  V30 1028 H 52.846 -8.84973 7.3921 0
M  V30 1029 H 53.7071 -6.8908 9.59605 0
M  V30 1030 H 54.6041 -7.24898 8.16861 0
M  V30 1031 H 53.9453 -9.23859 10.3917 0
M  V30 1032 H 54.1763 -10.3643 8.19308 0
M  V30 1033 H 55.4231 -10.8651 9.29167 0
M  V30 1034 H 57.0424 -9.35763 8.26034 0
M  V30 1035 H 55.804 -8.62897 7.25134 0
M  V30 1036 H 56.6155 -11.5528 7.06043 0
M  V30 1037 H 54.9349 -9.81484 5.16607 0
M  V30 1038 H 54.3467 -11.1656 6.14624 0
M  V30 1039 H 55.4851 -11.4622 4.83267 0
M  V30 1040 H 58.6712 -12.005 6.04696 0
M  V30 1041 H 60.7119 -11.2492 4.96228 0
M  V30 1042 H 62.0927 -9.5132 4.19052 0
M  V30 1043 H 61.6239 -7.82281 4.386 0
M  V30 1044 H 59.7705 -10.1058 2.05294 0
M  V30 1045 H 61.4475 -10.7484 2.13643 0
M  V30 1046 H 60.8937 -9.81851 0.694208 0
M  V30 1047 H 59.3662 -7.71464 2.18942 0
M  V30 1048 H 60.5245 -7.36759 0.888607 0
M  V30 1049 H 60.7216 -6.57499 2.49275 0
M  V30 1050 H 63.351 -9.19098 2.28387 0
M  V30 1051 H 63.0505 -7.42362 2.44604 0
M  V30 1052 H 62.7172 -8.25263 0.88367 0
M  V30 1053 H 58.9859 -7.32589 4.41211 0
M  V30 1054 H 56.9219 -8.09529 5.43083 0
M  V30 1055 H 55.8566 -6.3027 9.89302 0
M  V30 1056 H 57.6982 -5.65704 11.3165 0
M  V30 1057 H 59.6492 -6.35541 12.5695 0
M  V30 1058 H 59.863 -8.01928 13.1338 0
M  V30 1059 H 58.9613 -8.72421 15.2749 0
M  V30 1060 H 57.278 -8.23033 14.8713 0
M  V30 1061 H 58.0638 -7.56211 16.3181 0
M  V30 1062 H 60.7825 -7.07231 15.1482 0
M  V30 1063 H 59.8199 -5.93128 16.1566 0
M  V30 1064 H 60.4391 -5.40315 14.5553 0
M  V30 1065 H 56.8178 -5.97932 14.057 0
M  V30 1066 H 58.1594 -4.80248 13.8359 0
M  V30 1067 H 57.6083 -5.26852 15.4819 0
M  V30 1068 H 57.9601 -9.68906 12.8448 0
M  V30 1069 H 56.0831 -10.3418 11.4383 0
M  V30 1070 H 51.7884 -9.55239 11.7031 0
M  V30 1071 H 52.2441 -11.8153 12.3553 0
M  V30 1072 H 53.3082 -14.0932 11.3407 0
M  V30 1073 H 52.5356 -14.6905 9.86297 0
M  V30 1074 H 50.466 -13.1949 12.729 0
M  V30 1075 H 51.9602 -13.9305 13.4223 0
M  V30 1076 H 50.3754 -14.7745 13.5178 0
M  V30 1077 H 49.6298 -13.9314 10.571 0
M  V30 1078 H 49.2836 -15.4757 11.3825 0
M  V30 1079 H 50.2309 -15.4602 9.85041 0
M  V30 1080 H 52.7566 -16.1 12.468 0
M  V30 1081 H 52.0184 -16.7183 10.9412 0
M  V30 1082 H 51.0767 -16.7422 12.4747 0
M  V30 1083 H 51.8782 -13.1102 8.24455 0
M  V30 1084 H 51.497 -10.8027 7.57198 0
M  V30 1085 H 48.063 -8.09118 7.66154 0
M  V30 1086 H 48.2829 -8.8627 5.37276 0
M  V30 1087 H 49.7003 -9.01827 3.41147 0
M  V30 1088 H 51.0141 -7.87726 3.1032 0
M  V30 1089 H 50.6138 -5.82797 1.87848 0
M  V30 1090 H 49.3655 -5.25109 3.03703 0
M  V30 1091 H 48.9543 -5.40573 1.31224 0
M  V30 1092 H 50.3501 -8.01309 0.781934 0
M  V30 1093 H 48.6816 -7.5522 0.272982 0
M  V30 1094 H 48.9503 -9.06597 1.20435 0
M  V30 1095 H 47.4741 -6.6798 3.61777 0
M  V30 1096 H 47.3379 -8.32886 2.9237 0
M  V30 1097 H 47.0499 -6.87863 1.89973 0
M  V30 1098 H 51.2812 -5.84761 4.61781 0
M  V30 1099 H 51.0475 -5.0476 6.90377 0
M  V30 1100 H 48.1365 -2.78195 8.74429 0
M  V30 1101 H 50.0598 -1.48347 8.16392 0
M  V30 1102 H 52.7298 -1.38026 8.69916 0
M  V30 1103 H 53.1276 -1.16465 10.4082 0
M  V30 1104 H 50.1638 0.676586 8.80004 0
M  V30 1105 H 51.4158 0.372192 7.53713 0
M  V30 1106 H 51.2357 1.99419 8.29798 0
M  V30 1107 H 50.7819 0.702208 11.1487 0
M  V30 1108 H 51.6681 2.19903 10.744 0
M  V30 1109 H 52.5059 0.862103 11.6154 0
M  V30 1110 H 53.8206 0.655342 8.17307 0
M  V30 1111 H 54.257 0.843071 9.91157 0
M  V30 1112 H 53.4267 2.1838 9.04199 0
M  V30 1113 H 51.8724 -2.38211 11.9836 0
M  V30 1114 H 49.9571 -3.78857 12.5391 0
M  V30 1115 H 45.879 -3.04156 13.9283 0
M  V30 1116 H 47.2057 -3.73403 15.8338 0
M  V30 1117 H 48.6874 -5.492 16.7435 0
M  V30 1118 H 48.4715 -7.19456 16.3186 0
M  V30 1119 H 46.9104 -8.59141 17.5029 0
M  V30 1120 H 45.5135 -7.54132 17.0827 0
M  V30 1121 H 45.8558 -7.9055 18.7916 0
M  V30 1122 H 48.8582 -7.63782 18.662 0
M  V30 1123 H 47.7646 -6.95116 19.919 0
M  V30 1124 H 48.9034 -5.87516 19.0372 0
M  V30 1125 H 45.5681 -5.15779 17.6043 0
M  V30 1126 H 47.0405 -4.42212 18.3294 0
M  V30 1127 H 45.9663 -5.48354 19.3059 0
M  V30 1128 H 46.6795 -7.87796 14.7207 0
M  V30 1129 H 45.3262 -7.18558 12.816 0
M  V30 1130 H 41.4504 -5.75675 12.4353 0
M  V30 1131 H 41.5996 -8.10019 11.9313 0
M  V30 1132 H 42.8556 -9.77521 10.1845 0
M  V30 1133 H 42.5397 -9.44112 8.4754 0
M  V30 1134 H 39.7685 -9.14392 11.1192 0
M  V30 1135 H 40.9634 -10.3808 11.6674 0
M  V30 1136 H 39.3918 -10.8609 10.9412 0
M  V30 1137 H 39.5939 -8.57033 8.76844 0
M  V30 1138 H 38.9484 -10.2186 8.56361 0
M  V30 1139 H 40.3131 -9.65764 7.52722 0
M  V30 1140 H 41.9071 -11.9392 9.94575 0
M  V30 1141 H 41.6317 -11.5934 8.19612 0
M  V30 1142 H 40.275 -12.1714 9.23097 0
M  V30 1143 H 42.4926 -7.18415 7.79632 0
M  V30 1144 H 42.4425 -4.80985 8.33606 0
M  V30 1145 H 39.3964 -1.95089 8.77022 0
M  V30 1146 H 40.365 -1.75591 6.57224 0
M  V30 1147 H 42.5047 -1.44625 5.32404 0
M  V30 1148 H 43.7576 -0.358429 5.92404 0
M  V30 1149 H 43.6344 2.01033 5.58759 0
M  V30 1150 H 42.0585 2.1477 6.43357 0
M  V30 1151 H 42.2124 2.75274 4.76025 0
M  V30 1152 H 43.8658 0.471529 3.67061 0
M  V30 1153 H 42.4258 1.24011 2.89966 0
M  V30 1154 H 42.468 -0.541047 3.16661 0
M  V30 1155 H 40.1589 0.790354 5.72899 0
M  V30 1156 H 40.3524 -0.432755 4.42873 0
M  V30 1157 H 40.3298 1.32535 4.03832 0
M  V30 1158 H 43.5724 0.660091 8.16836 0
M  V30 1159 H 42.5939 0.480928 10.3969 0
M  V30 1160 H 39.07 2.2114 12.1157 0
M  V30 1161 H 41.0604 3.40971 12.5745 0
M  V30 1162 H 43.5471 3.01093 13.6213 0
M  V30 1163 H 43.5444 2.46266 15.3023 0
M  V30 1164 H 41.0121 5.07346 14.055 0
M  V30 1165 H 42.5182 5.20023 13.0602 0
M  V30 1166 H 42.1651 6.37386 14.3808 0
M  V30 1167 H 41.0952 4.0505 16.2626 0
M  V30 1168 H 42.0253 5.50654 16.7132 0
M  V30 1169 H 42.6732 3.87306 17.0964 0
M  V30 1170 H 44.7121 4.99291 14.2286 0
M  V30 1171 H 44.7583 4.40728 15.9338 0
M  V30 1172 H 44.1246 6.04826 15.5661 0
M  V30 1173 H 41.9644 0.759677 15.8624 0
M  V30 1174 H 39.9732 -0.557889 15.3159 0
M  V30 1175 H 33.5661 1.03353 12.0204 0
M  V30 1176 H 33.2419 3.19251 13.0797 0
M  V30 1177 H 33.7853 4.66306 14.7284 0
M  V30 1178 H 35.0541 4.39714 15.9232 0
M  V30 1179 H 34.6374 3.91303 18.0252 0
M  V30 1180 H 34.1712 2.23131 17.7118 0
M  V30 1181 H 33.0569 3.23587 18.6052 0
M  V30 1182 H 33.0874 5.7928 16.6538 0
M  V30 1183 H 31.7077 4.93491 17.403 0
M  V30 1184 H 31.7927 5.11164 15.6513 0
M  V30 1185 H 32.5763 1.62192 16.1455 0
M  V30 1186 H 31.5797 2.84741 15.2634 0
M  V30 1187 H 31.3663 2.57242 17.0215 0
M  V30 1188 H 35.8244 1.95528 16.362 0
M  V30 1189 H 35.9711 -0.268185 15.4005 0
M  V30 1190 H 31.2477 -3.38178 10.4111 0
M  V30 1191 H 31.7328 -5.54384 9.38983 0
M  V30 1192 H 32.2349 -8.00168 9.78444 0
M  V30 1193 H 32.9293 -8.51219 11.3274 0
M  V30 1194 H 35.3292 -7.96124 11.8441 0
M  V30 1195 H 35.2603 -6.26303 11.2597 0
M  V30 1196 H 36.3991 -7.41074 10.5104 0
M  V30 1197 H 34.6201 -9.79792 10.3301 0
M  V30 1198 H 35.6483 -9.132 9.01813 0
M  V30 1199 H 33.8863 -9.40498 8.73502 0
M  V30 1200 H 34.3135 -5.75458 9.07124 0
M  V30 1201 H 33.6184 -7.03892 8.05377 0
M  V30 1202 H 35.4007 -6.86301 8.29649 0
M  V30 1203 H 33.3153 -6.97318 13.163 0
M  V30 1204 H 32.8451 -4.81735 14.1697 0
M  V30 1205 H 30.0101 -3.50092 16.3435 0
M  V30 1206 H 29.6809 -5.03431 15.5644 0
M  V30 1207 H 28.354 -3.70131 17.9722 0
M  V30 1208 H 29.4794 -5.00177 17.9504 0
M  V30 1209 H 26.7152 -5.14335 16.7143 0
M  V30 1210 H 28.1761 -6.61417 15.5354 0
M  V30 1211 H 27.0762 -7.52341 16.4722 0
M  V30 1212 H 30.0894 -6.97839 16.9712 0
M  V30 1213 H 29.4033 -8.41767 16.2779 0
M  V30 1214 H 29.0452 -7.41166 19.0956 0
M  V30 1215 H 26.9415 -8.37639 18.5392 0
M  V30 1216 H 27.71 -9.52359 19.5261 0
M  V30 1217 H 27.3754 -9.5308 16.4457 0
M  V30 1218 H 26.4444 -10.4238 17.6009 0
M  V30 1219 H 29.3923 -10.7895 16.9153 0
M  V30 1220 H 29.119 -11.1508 19.2949 0
M  V30 1221 H 29.4298 -12.6388 18.5678 0
M  V30 1222 H 26.6724 -11.4803 19.4468 0
M  V30 1223 H 27.674 -12.4999 20.4111 0
M  V30 1224 H 26.3753 -13.2434 17.7542 0
M  V30 1225 H 28.5786 -14.303 17.9375 0
M  V30 1226 H 27.3762 -15.4719 18.0279 0
M  V30 1227 H 28.8841 -14.1661 20.4394 0
M  V30 1228 H 29.4031 -15.5863 19.6258 0
M  V30 1229 H 26.7942 -15.2541 21.1749 0
M  V30 1230 H 26.3717 -16.6576 19.2189 0
M  V30 1231 H 26.3162 -17.6199 20.5931 0
M  V30 1232 H 28.7798 -17.2662 18.6927 0
M  V30 1233 H 27.5689 -18.4513 18.4654 0
M  V30 1234 H 29.3992 -18.234 20.9033 0
M  V30 1235 H 27.2204 -19.0161 21.6398 0
M  V30 1236 H 28.2771 -20.3258 21.6914 0
M  V30 1237 H 26.2548 -19.6535 19.3996 0
M  V30 1238 H 25.9143 -20.6994 20.7031 0
M  V30 1239 H 28.1158 -21.1109 18.6209 0
M  V30 1240 H 28.8844 -21.9693 20.7709 0
M  V30 1241 H 28.5539 -23.2874 19.7738 0
M  V30 1242 H 26.6556 -22.0705 21.932 0
M  V30 1243 H 27.7619 -23.3293 22.2451 0
M  V30 1244 H 25.4702 -23.4762 20.2248 0
M  V30 1245 H 27.3037 -24.8159 19.4012 0
M  V30 1246 H 26.1309 -25.8924 19.9805 0
M  V30 1247 H 28.6929 -24.9308 21.4714 0
M  V30 1248 H 28.5849 -26.3726 20.5647 0
M  V30 1249 H 26.9181 -25.7219 23.0484 0
M  V30 1250 H 25.5893 -27.0878 21.5413 0
M  V30 1251 H 26.0545 -28.0771 22.8414 0
M  V30 1252 H 27.4174 -27.9207 20.0557 0
M  V30 1253 H 26.1909 -29.039 20.4608 0
M  V30 1254 H 28.9195 -28.8591 21.8283 0
M  V30 1255 H 27.3221 -29.6339 23.4465 0
M  V30 1256 H 28.2489 -30.9985 23.0048 0
M  V30 1257 H 25.4647 -30.209 21.9419 0
M  V30 1258 H 25.7471 -31.2789 23.2439 0
M  V30 1259 H 26.6203 -31.7427 20.3326 0
M  V30 1260 H 28.204 -32.8346 21.9378 0
M  V30 1261 H 27.3331 -34.0265 21.0229 0
M  V30 1262 H 25.7252 -34.3314 22.8534 0
M  V30 1263 H 26.4593 -33.0272 23.7643 0
M  V30 1264 H 27.8568 -35.648 23.1522 0
M  V30 1265 H 28.6579 -33.3204 24.9959 0
M  V30 1266 H 29.5009 -33.837 23.5336 0
M  V30 1267 H 29.4416 -34.9036 24.9428 0
M  V30 1268 H 26.5905 -37.3555 24.1438 0
M  V30 1269 H 24.8878 -38.1141 25.7138 0
M  V30 1270 H 23.0158 -37.4589 27.1533 0
M  V30 1271 H 22.898 -35.83 27.8144 0
M  V30 1272 H 24.0801 -35.2493 29.9091 0
M  V30 1273 H 25.6708 -35.8526 29.337 0
M  V30 1274 H 24.9507 -36.5298 30.8212 0
M  V30 1275 H 22.1205 -36.7538 29.8836 0
M  V30 1276 H 23.0712 -38.0168 30.7409 0
M  V30 1277 H 22.2659 -38.3974 29.1729 0
M  V30 1278 H 25.8707 -38.0776 28.3715 0
M  V30 1279 H 24.4259 -39.1409 28.2359 0
M  V30 1280 H 25.1617 -38.7976 29.8459 0
M  V30 1281 H 24.8057 -34.1978 27.546 0
M  V30 1282 H 26.5238 -33.4448 25.9939 0
M  V30 1283 H 23.6924 -31.4467 22.2937 0
M  V30 1284 H 21.5892 -32.5065 21.8332 0
M  V30 1285 H 20.5718 -34.7228 21.1694 0
M  V30 1286 H 21.2396 -35.6501 19.8232 0
M  V30 1287 H 18.3873 -34.5609 20.405 0
M  V30 1288 H 18.9051 -35.7549 19.159 0
M  V30 1289 H 18.0269 -34.2552 18.6724 0
M  V30 1290 H 19.5306 -32.3957 20.5852 0
M  V30 1291 H 19.0659 -32.1102 18.8758 0
M  V30 1292 H 20.766 -31.9355 19.3597 0
M  V30 1293 H 20.7049 -35.1716 17.5866 0
M  V30 1294 H 21.5052 -33.5646 17.6912 0
M  V30 1295 H 19.8115 -33.6754 17.1332 0
M  V30 1296 H 23.5105 -35.1764 19.0327 0
M  V30 1297 H 25.6484 -34.1058 19.4851 0
M  V30 1298 H 27.5682 -29.7056 18.6745 0
M  V30 1299 H 28.634 -31.2121 17.1095 0
M  V30 1300 H 29.8863 -33.2934 16.8244 0
M  V30 1301 H 30.9218 -33.9415 18.1044 0
M  V30 1302 H 33.209 -33.1582 18.369 0
M  V30 1303 H 32.7506 -31.4218 18.4694 0
M  V30 1304 H 33.8985 -31.9527 17.2195 0
M  V30 1305 H 32.5216 -34.4909 16.4151 0
M  V30 1306 H 33.1784 -33.2261 15.3113 0
M  V30 1307 H 31.467 -33.7531 15.1528 0
M  V30 1308 H 31.3207 -30.4261 16.7677 0
M  V30 1309 H 30.6976 -31.4207 15.4084 0
M  V30 1310 H 32.4318 -30.947 15.4801 0
M  V30 1311 H 31.2483 -32.6476 20.2374 0
M  V30 1312 H 30.2059 -31.1137 21.8097 0
M  V30 1313 H 30.2772 -26.4115 22.1956 0
M  V30 1314 H 31.87 -27.5572 23.6109 0
M  V30 1315 H 32.1032 -29.5357 25.1099 0
M  V30 1316 H 30.8469 -29.9586 26.2739 0
M  V30 1317 H 33.8773 -29.6338 26.6035 0
M  V30 1318 H 32.6925 -30.2801 27.7952 0
M  V30 1319 H 33.7657 -28.8991 28.2406 0
M  V30 1320 H 33.4894 -27.4369 25.5549 0
M  V30 1321 H 33.4775 -26.7495 27.2164 0
M  V30 1322 H 32.1205 -26.4159 26.1127 0
M  V30 1323 H 30.7321 -28.9386 28.4211 0
M  V30 1324 H 30.4972 -27.3036 27.7139 0
M  V30 1325 H 31.8341 -27.5827 28.8646 0
M  V30 1326 H 28.6843 -28.7582 26.2693 0
M  V30 1327 H 27.0791 -27.586 24.868 0
M  V30 1328 H 25.9492 -23.262 23.7282 0
M  V30 1329 H 24.3841 -24.0935 25.3707 0
M  V30 1330 H 22.8622 -25.9589 25.9616 0
M  V30 1331 H 21.9725 -26.8475 24.7206 0
M  V30 1332 H 19.9075 -25.9983 23.8107 0
M  V30 1333 H 20.6535 -24.4541 23.2766 0
M  V30 1334 H 19.2408 -24.4161 24.3628 0
M  V30 1335 H 20.0594 -26.682 26.1709 0
M  V30 1336 H 19.421 -25.0725 26.6744 0
M  V30 1337 H 20.9829 -25.6686 27.339 0
M  V30 1338 H 21.8906 -23.0723 24.8658 0
M  V30 1339 H 22.1255 -23.6285 26.5588 0
M  V30 1340 H 20.5159 -23.0551 25.9936 0
M  V30 1341 H 22.3188 -26.3297 22.3069 0
M  V30 1342 H 23.879 -25.4808 20.6385 0
M  V30 1343 H 24.5871 -21.1743 18.818 0
M  V30 1344 H 23.1506 -22.5559 17.4427 0
M  V30 1345 H 22.9034 -24.8905 16.5321 0
M  V30 1346 H 24.2921 -25.7502 15.8662 0
M  V30 1347 H 21.501 -25.2617 14.7052 0
M  V30 1348 H 22.8013 -26.3232 14.0545 0
M  V30 1349 H 22.0823 -25.0338 13.0178 0
M  V30 1350 H 21.9883 -22.903 15.2219 0
M  V30 1351 H 22.4696 -22.7241 13.4992 0
M  V30 1352 H 23.5852 -22.21 14.7844 0
M  V30 1353 H 25.0344 -25.4001 13.6256 0
M  V30 1354 H 25.365 -23.6619 13.9319 0
M  V30 1355 H 24.2826 -24.1302 12.5907 0
M  V30 1356 H 26.5648 -24.8541 16.1356 0
M  V30 1357 H 28.0199 -23.4552 17.4958 0
M  V30 1358 H 29.5339 -19.0778 17.4549 0
M  V30 1359 H 31.1183 -20.612 16.4667 0
M  V30 1360 H 32.2785 -22.8043 16.7735 0
M  V30 1361 H 32.8307 -23.3264 18.3675 0
M  V30 1362 H 34.9045 -22.5442 19.2961 0
M  V30 1363 H 34.3967 -20.8232 19.2002 0
M  V30 1364 H 35.9121 -21.3371 18.4134 0
M  V30 1365 H 34.8959 -23.9432 17.2789 0
M  V30 1366 H 35.8865 -22.704 16.4224 0
M  V30 1367 H 34.3297 -23.2569 15.7125 0
M  V30 1368 H 33.6554 -19.8814 17.0626 0
M  V30 1369 H 33.5183 -20.9338 15.6118 0
M  V30 1370 H 35.1299 -20.4419 16.2433 0
M  V30 1371 H 32.2521 -22.0101 20.3911 0
M  V30 1372 H 30.6708 -20.4541 21.3991 0
M  V30 1373 H 30.2988 -15.7091 21.6677 0
M  V30 1374 H 31.3128 -16.6816 23.6445 0
M  V30 1375 H 31.1371 -18.4418 25.3509 0
M  V30 1376 H 29.5737 -19.0585 25.8906 0
M  V30 1377 H 28.3025 -17.8976 27.6033 0
M  V30 1378 H 28.2955 -16.3403 26.705 0
M  V30 1379 H 28.9515 -16.3932 28.3608 0
M  V30 1380 H 30.4353 -18.9936 28.1397 0
M  V30 1381 H 31.0508 -17.4515 28.8463 0
M  V30 1382 H 31.9825 -18.2848 27.5521 0
M  V30 1383 H 30.4013 -15.3731 25.9092 0
M  V30 1384 H 31.9509 -16.2336 26.1864 0
M  V30 1385 H 31.0859 -15.4398 27.5511 0
M  V30 1386 H 27.4493 -18.1065 24.9274 0
M  V30 1387 H 26.4225 -17.105 22.9586 0
M  V30 1388 H 25.5926 -12.6507 21.1945 0
M  V30 1389 H 23.6268 -13.5001 22.3189 0
M  V30 1390 H 21.9724 -15.088 22.5784 0
M  V30 1391 H 22.046 -16.5979 21.6713 0
M  V30 1392 H 20.4945 -17.036 19.9141 0
M  V30 1393 H 20.8921 -15.5905 18.9199 0
M  V30 1394 H 19.2207 -15.8412 19.4655 0
M  V30 1395 H 19.6508 -16.6868 22.2435 0
M  V30 1396 H 18.5278 -15.4041 21.6505 0
M  V30 1397 H 19.7019 -15.0356 22.9614 0
M  V30 1398 H 21.104 -13.4089 19.9519 0
M  V30 1399 H 20.6101 -13.1642 21.656 0
M  V30 1400 H 19.3778 -13.5259 20.3936 0
M  V30 1401 H 22.986 -16.2908 19.0885 0
M  V30 1402 H 24.8975 -15.376 17.9105 0
M  V30 1403 H 26.1016 -11.337 15.6372 0
M  V30 1404 H 25.4926 -13.0195 14.0275 0
M  V30 1405 H 25.7973 -15.3882 13.3656 0
M  V30 1406 H 27.3609 -16.189 13.5089 0
M  V30 1407 H 27.134 -12.8405 11.8026 0
M  V30 1408 H 25.5264 -13.6022 11.5477 0
M  V30 1409 H 26.74 -13.5552 10.2196 0
M  V30 1410 H 29.1403 -14.2525 12.0099 0
M  V30 1411 H 28.7807 -14.9085 10.3874 0
M  V30 1412 H 29.0085 -16.0275 11.7816 0
M  V30 1413 H 25.3676 -16.0207 11.1529 0
M  V30 1414 H 26.8378 -17.0515 11.2825 0
M  V30 1415 H 26.6486 -15.918 9.89259 0
M  V30 1416 H 29.279 -14.999 14.6128 0
M  V30 1417 H 29.9206 -13.2869 16.2326 0
M  V30 1418 H 29.5603 -8.8675 20.9891 0
M  V30 1419 H 31.3101 -10.231 21.986 0
M  V30 1420 H 33.3403 -11.3567 21.8607 0
M  V30 1421 H 34.4171 -11.1303 20.4811 0
M  V30 1422 H 34.56 -12.8395 18.7575 0
M  V30 1423 H 32.7964 -12.9161 18.4038 0
M  V30 1424 H 33.6503 -14.3835 18.9201 0
M  V30 1425 H 35.3333 -13.3139 21.0921 0
M  V30 1426 H 34.2669 -14.7649 21.1511 0
M  V30 1427 H 34.1095 -13.4874 22.404 0
M  V30 1428 H 31.1821 -12.9971 20.2186 0
M  V30 1429 H 31.7382 -13.2875 21.9005 0
M  V30 1430 H 31.9156 -14.5642 20.6432 0
M  V30 1431 H 33.1533 -10.6623 18.1014 0
M  V30 1432 H 31.382 -9.33155 17.0984 0
M  V30 1433 H 24.9793 -6.42657 17.7471 0
M  V30 1434 H 23.9037 -7.06626 19.8442 0
M  V30 1435 H 23.942 -6.82361 22.3823 0
M  V30 1436 H 25.477 -6.59627 23.2204 0
M  V30 1437 H 23.3119 -8.61443 23.7903 0
M  V30 1438 H 24.8256 -8.34198 24.7278 0
M  V30 1439 H 24.4333 -9.98814 24.1073 0
M  V30 1440 H 23.4417 -9.0511 21.349 0
M  V30 1441 H 24.4739 -10.4619 21.7762 0
M  V30 1442 H 25.0551 -9.27958 20.5811 0
M  V30 1443 H 27.0037 -8.43619 23.5885 0
M  V30 1444 H 27.0884 -8.84293 21.8446 0
M  V30 1445 H 26.5864 -10.0917 23.0135 0
M  V30 1446 H 27.5256 -6.08182 21.9999 0
M  V30 1447 H 28.5586 -5.35232 19.9299 0
M  V30 1448 H 25.6411 -2.57225 14.6868 0
M  V30 1449 H 23.748 -3.80144 13.9564 0
M  V30 1450 H 22.7752 -6.00268 13.5099 0
M  V30 1451 H 23.7478 -7.35883 12.9448 0
M  V30 1452 H 21.1106 -6.17431 11.8552 0
M  V30 1453 H 21.9345 -7.68871 11.3509 0
M  V30 1454 H 21.5449 -6.41566 10.1278 0
M  V30 1455 H 22.374 -4.04418 11.8788 0
M  V30 1456 H 22.6866 -4.31837 10.1375 0
M  V30 1457 H 24.0493 -3.99071 11.2481 0
M  V30 1458 H 24.2966 -7.61376 10.6414 0
M  V30 1459 H 25.1655 -6.04289 10.5852 0
M  V30 1460 H 23.8433 -6.36088 9.42298 0
M  V30 1461 H 26.2729 -7.07297 12.7664 0
M  V30 1462 H 28.2219 -5.85825 13.5491 0
M  V30 1463 H 26.5885 -2.97399 16.9352 0
M  V30 1464 H 25.8642 -0.969239 17.9489 0
M  V30 1465 H 21.3563 2.44455 16.528 0
M  V30 1466 H 19.959 0.508111 16.9379 0
M  V30 1467 H 19.5749 -1.85812 16.8 0
M  V30 1468 H 20.9424 -2.93219 16.4745 0
M  V30 1469 H 21.2703 -3.80238 14.1513 0
M  V30 1470 H 21.1539 -2.22166 13.2964 0
M  V30 1471 H 20.0061 -3.51609 12.9099 0
M  V30 1472 H 19.3978 -4.60211 15.4199 0
M  V30 1473 H 18.1235 -3.98737 14.3064 0
M  V30 1474 H 18.1621 -3.47454 16.0352 0
M  V30 1475 H 19.525 -0.650106 13.8374 0
M  V30 1476 H 18.2291 -1.02806 15.0055 0
M  V30 1477 H 18.2348 -1.80737 13.3811 0
M  V30 1478 H 22.7924 -1.97057 14.8186 0
M  V30 1479 H 24.1051 -0.032507 14.2842 0
M  V30 1480 H 23.2794 4.46876 11.7576 0
M  V30 1481 H 24.2472 2.80943 10.3662 0
M  V30 1482 H 26.0204 0.993465 10.2385 0
M  V30 1483 H 27.6213 1.29272 10.9032 0
M  V30 1484 H 29.1984 2.72256 9.80324 0
M  V30 1485 H 28.0828 4.12376 9.84257 0
M  V30 1486 H 28.7689 3.57588 8.27827 0
M  V30 1487 H 28.4622 0.592602 8.74542 0
M  V30 1488 H 28.0386 1.51127 7.25539 0
M  V30 1489 H 26.8063 0.475591 8.06746 0
M  V30 1490 H 25.8811 3.96944 8.84903 0
M  V30 1491 H 25.2696 2.39225 8.22356 0
M  V30 1492 H 26.5189 3.31817 7.31768 0
M  V30 1493 H 27.972 3.10525 12.5393 0
M  V30 1494 H 26.9653 4.80134 14.0043 0
M  V30 1495 H 19.5941 5.89537 11.7467 0
M  V30 1496 H 19.6899 6.7987 9.49749 0
M  V30 1497 H 20.5541 8.39128 7.93856 0
M  V30 1498 H 21.8502 9.49028 8.41778 0
M  V30 1499 H 21.2495 11.7738 9.25367 0
M  V30 1500 H 19.9225 11.2813 10.3702 0
M  V30 1501 H 19.569 12.3844 9.02487 0
M  V30 1502 H 21.0883 11.1364 6.85511 0
M  V30 1503 H 19.3558 11.6463 6.81614 0
M  V30 1504 H 19.8182 9.9792 6.32982 0
M  V30 1505 H 18.311 9.59644 9.69314 0
M  V30 1506 H 18.2274 9.09705 7.97607 0
M  V30 1507 H 17.7834 10.7727 8.44901 0
M  V30 1508 H 21.9195 10.2011 10.9639 0
M  V30 1509 H 21.7245 9.36819 13.2174 0
M  V30 1510 H 17.7383 8.48484 16.1714 0
M  V30 1511 H 18.8819 10.5647 16.3807 0
M  V30 1512 H 21.3122 11.5838 16.4696 0
M  V30 1513 H 22.4343 10.8708 17.6252 0
M  V30 1514 H 22.0745 11.0555 20.0234 0
M  V30 1515 H 20.3844 10.4684 19.9457 0
M  V30 1516 H 20.7347 12.0753 20.6589 0
M  V30 1517 H 22.7756 12.9826 18.6211 0
M  V30 1518 H 21.3963 13.9425 19.2637 0
M  V30 1519 H 21.5994 13.7217 17.4834 0
M  V30 1520 H 18.7771 11.5498 18.5071 0
M  V30 1521 H 19.3032 12.791 17.3113 0
M  V30 1522 H 19.1815 13.1899 19.0637 0
M  V30 1523 H 22.2255 8.58382 18.2738 0
M  V30 1524 H 21.0853 6.44027 18.0193 0
M  V30 1525 H 14.2765 7.34906 14.1982 0
M  V30 1526 H 12.7267 8.51652 15.6548 0
M  V30 1527 H 11.557 8.71655 17.7124 0
M  V30 1528 H 12.0927 7.77551 19.1017 0
M  V30 1529 H 9.38134 8.92515 18.6217 0
M  V30 1530 H 9.87313 7.94539 20.0451 0
M  V30 1531 H 8.42354 7.47546 19.0753 0
M  V30 1532 H 9.57361 7.99961 16.4091 0
M  V30 1533 H 8.69374 6.50818 16.8589 0
M  V30 1534 H 10.3129 6.38391 16.1156 0
M  V30 1535 H 10.89 5.6889 19.6881 0
M  V30 1536 H 10.8051 4.97004 18.0367 0
M  V30 1537 H 9.3049 5.32314 18.9118 0
M  V30 1538 H 13.0017 5.32468 18.5463 0
M  V30 1539 H 14.4745 4.11606 17.0706 0
M  V30 1540 H 13.7074 2.0141 12.4745 0
M  V30 1541 H 13.207 0.770542 14.4133 0
M  V30 1542 H 14.0549 0.333641 16.9214 0
M  V30 1543 H 15.7632 -0.102671 17.0556 0
M  V30 1544 H 13.4031 -1.448 14.3125 0
M  V30 1545 H 12.4843 -1.20779 15.8513 0
M  V30 1546 H 13.0291 -2.85056 15.329 0
M  V30 1547 H 15.7709 -1.76378 14.3405 0
M  V30 1548 H 15.4683 -3.30349 15.2014 0
M  V30 1549 H 16.5907 -2.09615 15.8941 0
M  V30 1550 H 13.6136 -1.82009 18.0054 0
M  V30 1551 H 15.3765 -2.18516 17.9984 0
M  V30 1552 H 14.2326 -3.35412 17.2708 0
M  V30 1553 H 17.3531 0.92056 15.6176 0
M  V30 1554 H 17.8897 2.19848 13.5969 0
M  V30 1555 H 11.0625 3.8751 10.4143 0
M  V30 1556 H 9.97731 1.84951 9.65293 0
M  V30 1557 H 9.99973 -0.184225 8.36772 0
M  V30 1558 H 11.4731 -0.683049 7.52824 0
M  V30 1559 H 8.73812 -1.31868 6.68765 0
M  V30 1560 H 10.2343 -1.72744 5.77885 0
M  V30 1561 H 8.89053 -0.862146 4.9497 0
M  V30 1562 H 8.24368 1.02847 7.23208 0
M  V30 1563 H 8.40353 1.44627 5.48495 0
M  V30 1564 H 9.36319 2.33041 6.71078 0
M  V30 1565 H 11.815 0.0778643 5.13429 0
M  V30 1566 H 11.317 1.79211 5.36993 0
M  V30 1567 H 10.4162 0.762037 4.23418 0
M  V30 1568 H 13.1547 1.18502 6.80564 0
M  V30 1569 H 14.1846 3.2777 7.472 0
M  V30 1570 H 12.2685 8.04018 7.19397 0
M  V30 1571 H 13.4757 7.1816 5.33224 0
M  V30 1572 H 15.5367 5.738 4.67023 0
M  V30 1573 H 17.0511 6.03243 5.52289 0
M  V30 1574 H 14.8209 8.8627 4.26271 0
M  V30 1575 H 14.6468 7.46976 3.13119 0
M  V30 1576 H 15.6686 8.8938 2.69896 0
M  V30 1577 H 16.8474 9.166 5.53119 0
M  V30 1578 H 17.7479 9.30973 3.99107 0
M  V30 1579 H 18.2768 8.12977 5.23044 0
M  V30 1580 H 16.6434 6.10658 2.58278 0
M  V30 1581 H 18.1804 6.37945 3.47184 0
M  V30 1582 H 17.6074 7.60815 2.29306 0
M  V30 1583 H 17.0956 7.05219 7.68728 0
M  V30 1584 H 15.8631 7.94369 9.61522 0
M  V30 1585 H 8.23511 8.415 7.87555 0
M  V30 1586 H 7.81336 10.1315 6.2152 0
M  V30 1587 H 8.04786 12.3538 5.43332 0
M  V30 1588 H 9.23101 13.4073 6.21673 0
M  V30 1589 H 8.45961 15.0636 7.89991 0
M  V30 1590 H 7.37852 13.9883 8.85721 0
M  V30 1591 H 6.70142 15.4171 8.0537 0
M  V30 1592 H 8.00115 15.3115 5.44599 0
M  V30 1593 H 6.2389 15.4776 5.782 0
M  V30 1594 H 6.82812 14.2013 4.65277 0
M  V30 1595 H 5.95715 12.3766 7.74946 0
M  V30 1596 H 5.67014 12.493 5.98267 0
M  V30 1597 H 5.0802 13.7899 7.09158 0
M  V30 1598 H 9.46265 13.1102 8.87757 0
M  V30 1599 H 9.734 11.4354 10.5907 0
M  V30 1600 H 6.44783 8.7413 13.2472 0
M  V30 1601 H 7.20591 10.9115 13.9671 0
M  V30 1602 H 9.25869 12.4784 13.8878 0
M  V30 1603 H 10.8536 11.7929 14.1928 0
M  V30 1604 H 9.71391 14.2284 15.4316 0
M  V30 1605 H 11.345 13.5339 15.7418 0
M  V30 1606 H 10.2477 13.8713 17.1226 0
M  V30 1607 H 7.70888 12.8459 15.7583 0
M  V30 1608 H 8.26137 12.5811 17.459 0
M  V30 1609 H 7.8692 11.1799 16.4297 0
M  V30 1610 H 11.5528 11.1849 16.4705 0
M  V30 1611 H 10.078 10.2323 16.7873 0
M  V30 1612 H 10.4937 11.5871 17.8665 0
M  V30 1613 H 11.2435 9.42838 14.2767 0
M  V30 1614 H 10.4743 7.20014 13.6244 0
M  V30 1615 H 2.42777 6.53148 11.6554 0
M  V30 1616 H 1.19323 6.90179 13.6804 0
M  V30 1617 H 0.97661 6.70935 16.0256 0
M  V30 1618 H 2.29385 6.01001 16.9666 0
M  V30 1619 H 0.0481137 4.08264 14.6534 0
M  V30 1620 H -0.952293 5.39208 15.3699 0
M  V30 1621 H -1.12416 3.69104 15.9483 0
M  V30 1622 H 1.72219 2.95684 15.9921 0
M  V30 1623 H 0.640797 2.69662 17.3798 0
M  V30 1624 H 2.17962 3.59693 17.6101 0
M  V30 1625 H -0.576187 6.10482 17.6892 0
M  V30 1626 H 0.73031 5.34172 18.6602 0
M  V30 1627 H -0.73741 4.39359 18.2363 0
M  V30 1628 H 3.72572 4.08214 15.7534 0
M  V30 1629 H 4.90798 3.62077 13.6951 0
M  V30 1630 H 4.08079 5.06752 5.63938 0
M  V30 1631 H 1.8863 4.68828 4.63612 0
M  V30 1632 H -0.380598 5.53505 4.27491 0
M  V30 1633 H -1.0666 6.78273 5.321 0
M  V30 1634 H 0.139623 3.3797 6.45483 0
M  V30 1635 H -0.579707 3.18314 4.82209 0
M  V30 1636 H -1.48536 2.66195 6.28902 0
M  V30 1637 H -0.773551 5.03026 8.00918 0
M  V30 1638 H -2.41192 4.36451 7.82357 0
M  V30 1639 H -2.11744 6.11042 7.49511 0
M  V30 1640 H -2.53963 4.52451 4.17341 0
M  V30 1641 H -3.19723 5.7565 5.31156 0
M  V30 1642 H -3.38889 4.00328 5.67299 0
M  V30 1643 H 0.120044 7.43574 7.45934 0
M  V30 1644 H 2.28284 7.80735 8.47319 0
M  V30 END ATOM
M  V30 BEGIN BOND
M  V30 1 1 1 2
M  V30 2 1 1 679
M  V30 3 1 1 680
M  V30 4 1 1 681
M  V30 5 1 2 3
M  V30 6 1 2 668
M  V30 7 1 2 682
M  V30 8 1 3 4
M  V30 9 1 3 683
M  V30 10 1 3 684
M  V30 11 1 4 5
M  V30 12 1 4 685
M  V30 13 1 4 686
M  V30 14 1 5 6
M  V30 15 1 5 657
M  V30 16 1 5 687
M  V30 17 1 6 7
M  V30 18 1 6 688
M  V30 19 1 6 689
M  V30 20 1 7 8
M  V30 21 1 7 690
M  V30 22 1 7 691
M  V30 23 1 8 9
M  V30 24 1 8 646
M  V30 25 1 8 692
M  V30 26 1 9 10
M  V30 27 1 9 693
M  V30 28 1 9 694
M  V30 29 1 10 11
M  V30 30 1 10 695
M  V30 31 1 10 696
M  V30 32 1 11 12
M  V30 33 1 11 635
M  V30 34 1 11 697
M  V30 35 1 12 13
M  V30 36 1 12 698
M  V30 37 1 12 699
M  V30 38 1 13 14
M  V30 39 1 13 700
M  V30 40 1 13 701
M  V30 41 1 14 15
M  V30 42 1 14 624
M  V30 43 1 14 702
M  V30 44 1 15 16
M  V30 45 1 15 703
M  V30 46 1 15 704
M  V30 47 1 16 17
M  V30 48 1 16 705
M  V30 49 1 16 706
M  V30 50 1 17 18
M  V30 51 1 17 613
M  V30 52 1 17 707
M  V30 53 1 18 19
M  V30 54 1 18 708
M  V30 55 1 18 709
M  V30 56 1 19 20
M  V30 57 1 19 710
M  V30 58 1 19 711
M  V30 59 1 20 21
M  V30 60 1 20 602
M  V30 61 1 20 712
M  V30 62 1 21 22
M  V30 63 1 21 713
M  V30 64 1 21 714
M  V30 65 1 22 23
M  V30 66 1 22 715
M  V30 67 1 22 716
M  V30 68 1 23 24
M  V30 69 1 23 591
M  V30 70 1 23 717
M  V30 71 1 24 25
M  V30 72 1 24 718
M  V30 73 1 24 719
M  V30 74 1 25 26
M  V30 75 1 25 720
M  V30 76 1 25 721
M  V30 77 1 26 27
M  V30 78 1 26 580
M  V30 79 1 26 722
M  V30 80 1 27 28
M  V30 81 1 27 723
M  V30 82 1 27 724
M  V30 83 1 28 29
M  V30 84 1 28 725
M  V30 85 1 28 726
M  V30 86 1 29 30
M  V30 87 1 29 569
M  V30 88 1 29 727
M  V30 89 1 30 31
M  V30 90 1 30 728
M  V30 91 1 30 729
M  V30 92 1 31 32
M  V30 93 1 31 730
M  V30 94 1 31 731
M  V30 95 1 32 33
M  V30 96 1 32 558
M  V30 97 1 32 732
M  V30 98 1 33 34
M  V30 99 1 33 733
M  V30 100 1 33 734
M  V30 101 1 34 35
M  V30 102 1 34 735
M  V30 103 1 34 736
M  V30 104 1 35 36
M  V30 105 1 35 547
M  V30 106 1 35 737
M  V30 107 1 36 37
M  V30 108 1 36 738
M  V30 109 1 36 739
M  V30 110 1 37 38
M  V30 111 1 37 740
M  V30 112 1 37 741
M  V30 113 1 38 39
M  V30 114 1 38 194
M  V30 115 1 38 205
M  V30 116 1 39 40
M  V30 117 1 39 742
M  V30 118 1 39 743
M  V30 119 1 40 41
M  V30 120 1 40 744
M  V30 121 1 40 745
M  V30 122 1 41 42
M  V30 123 1 41 183
M  V30 124 1 41 746
M  V30 125 1 42 43
M  V30 126 1 42 747
M  V30 127 1 42 748
M  V30 128 1 43 44
M  V30 129 1 43 749
M  V30 130 1 43 750
M  V30 131 1 44 45
M  V30 132 1 44 172
M  V30 133 1 44 751
M  V30 134 1 45 46
M  V30 135 1 45 752
M  V30 136 1 45 753
M  V30 137 1 46 47
M  V30 138 1 46 754
M  V30 139 1 46 755
M  V30 140 1 47 48
M  V30 141 1 47 161
M  V30 142 1 47 756
M  V30 143 1 48 49
M  V30 144 1 48 757
M  V30 145 1 48 758
M  V30 146 1 49 50
M  V30 147 1 49 759
M  V30 148 1 49 760
M  V30 149 1 50 51
M  V30 150 1 50 150
M  V30 151 1 50 761
M  V30 152 1 51 52
M  V30 153 1 51 762
M  V30 154 1 51 763
M  V30 155 1 52 53
M  V30 156 1 52 764
M  V30 157 1 52 765
M  V30 158 1 53 54
M  V30 159 1 53 139
M  V30 160 1 53 766
M  V30 161 1 54 55
M  V30 162 1 54 767
M  V30 163 1 54 768
M  V30 164 1 55 56
M  V30 165 1 55 769
M  V30 166 1 55 770
M  V30 167 1 56 57
M  V30 168 1 56 128
M  V30 169 1 56 771
M  V30 170 1 57 58
M  V30 171 1 57 772
M  V30 172 1 57 773
M  V30 173 1 58 59
M  V30 174 1 58 774
M  V30 175 1 58 775
M  V30 176 1 59 60
M  V30 177 1 59 117
M  V30 178 1 59 776
M  V30 179 1 60 61
M  V30 180 1 60 777
M  V30 181 1 60 778
M  V30 182 1 61 62
M  V30 183 1 61 779
M  V30 184 1 61 780
M  V30 185 1 62 63
M  V30 186 1 62 106
M  V30 187 1 62 781
M  V30 188 1 63 64
M  V30 189 1 63 782
M  V30 190 1 63 783
M  V30 191 1 64 65
M  V30 192 1 64 784
M  V30 193 1 64 785
M  V30 194 1 65 66
M  V30 195 1 65 95
M  V30 196 1 65 786
M  V30 197 1 66 67
M  V30 198 1 66 787
M  V30 199 1 66 788
M  V30 200 1 67 68
M  V30 201 1 67 789
M  V30 202 1 67 790
M  V30 203 1 68 69
M  V30 204 1 68 84
M  V30 205 1 68 791
M  V30 206 1 69 70
M  V30 207 1 69 792
M  V30 208 1 69 793
M  V30 209 1 70 71
M  V30 210 1 70 794
M  V30 211 1 70 795
M  V30 212 1 71 72
M  V30 213 1 71 73
M  V30 214 1 71 796
M  V30 215 1 72 797
M  V30 216 1 72 798
M  V30 217 1 72 799
M  V30 218 1 73 74
M  V30 219 2 73 83
M  V30 220 2 74 75
M  V30 221 1 74 800
M  V30 222 1 75 76
M  V30 223 1 75 801
M  V30 224 1 76 77
M  V30 225 2 76 82
M  V30 226 1 77 78
M  V30 227 1 77 802
M  V30 228 1 77 803
M  V30 229 1 78 79
M  V30 230 1 78 80
M  V30 231 1 78 81
M  V30 232 1 79 804
M  V30 233 1 79 805
M  V30 234 1 79 806
M  V30 235 1 80 807
M  V30 236 1 80 808
M  V30 237 1 80 809
M  V30 238 1 81 810
M  V30 239 1 81 811
M  V30 240 1 81 812
M  V30 241 1 82 83
M  V30 242 1 82 813
M  V30 243 1 83 814
M  V30 244 1 84 85
M  V30 245 2 84 94
M  V30 246 2 85 86
M  V30 247 1 85 815
M  V30 248 1 86 87
M  V30 249 1 86 816
M  V30 250 1 87 88
M  V30 251 2 87 93
M  V30 252 1 88 89
M  V30 253 1 88 817
M  V30 254 1 88 818
M  V30 255 1 89 90
M  V30 256 1 89 91
M  V30 257 1 89 92
M  V30 258 1 90 819
M  V30 259 1 90 820
M  V30 260 1 90 821
M  V30 261 1 91 822
M  V30 262 1 91 823
M  V30 263 1 91 824
M  V30 264 1 92 825
M  V30 265 1 92 826
M  V30 266 1 92 827
M  V30 267 1 93 94
M  V30 268 1 93 828
M  V30 269 1 94 829
M  V30 270 1 95 96
M  V30 271 2 95 105
M  V30 272 2 96 97
M  V30 273 1 96 830
M  V30 274 1 97 98
M  V30 275 1 97 831
M  V30 276 1 98 99
M  V30 277 2 98 104
M  V30 278 1 99 100
M  V30 279 1 99 832
M  V30 280 1 99 833
M  V30 281 1 100 101
M  V30 282 1 100 102
M  V30 283 1 100 103
M  V30 284 1 101 834
M  V30 285 1 101 835
M  V30 286 1 101 836
M  V30 287 1 102 837
M  V30 288 1 102 838
M  V30 289 1 102 839
M  V30 290 1 103 840
M  V30 291 1 103 841
M  V30 292 1 103 842
M  V30 293 1 104 105
M  V30 294 1 104 843
M  V30 295 1 105 844
M  V30 296 1 106 107
M  V30 297 2 106 116
M  V30 298 2 107 108
M  V30 299 1 107 845
M  V30 300 1 108 109
M  V30 301 1 108 846
M  V30 302 1 109 110
M  V30 303 2 109 115
M  V30 304 1 110 111
M  V30 305 1 110 847
M  V30 306 1 110 848
M  V30 307 1 111 112
M  V30 308 1 111 113
M  V30 309 1 111 114
M  V30 310 1 112 849
M  V30 311 1 112 850
M  V30 312 1 112 851
M  V30 313 1 113 852
M  V30 314 1 113 853
M  V30 315 1 113 854
M  V30 316 1 114 855
M  V30 317 1 114 856
M  V30 318 1 114 857
M  V30 319 1 115 116
M  V30 320 1 115 858
M  V30 321 1 116 859
M  V30 322 1 117 118
M  V30 323 2 117 127
M  V30 324 2 118 119
M  V30 325 1 118 860
M  V30 326 1 119 120
M  V30 327 1 119 861
M  V30 328 1 120 121
M  V30 329 2 120 126
M  V30 330 1 121 122
M  V30 331 1 121 862
M  V30 332 1 121 863
M  V30 333 1 122 123
M  V30 334 1 122 124
M  V30 335 1 122 125
M  V30 336 1 123 864
M  V30 337 1 123 865
M  V30 338 1 123 866
M  V30 339 1 124 867
M  V30 340 1 124 868
M  V30 341 1 124 869
M  V30 342 1 125 870
M  V30 343 1 125 871
M  V30 344 1 125 872
M  V30 345 1 126 127
M  V30 346 1 126 873
M  V30 347 1 127 874
M  V30 348 1 128 129
M  V30 349 2 128 138
M  V30 350 2 129 130
M  V30 351 1 129 875
M  V30 352 1 130 131
M  V30 353 1 130 876
M  V30 354 1 131 132
M  V30 355 2 131 137
M  V30 356 1 132 133
M  V30 357 1 132 877
M  V30 358 1 132 878
M  V30 359 1 133 134
M  V30 360 1 133 135
M  V30 361 1 133 136
M  V30 362 1 134 879
M  V30 363 1 134 880
M  V30 364 1 134 881
M  V30 365 1 135 882
M  V30 366 1 135 883
M  V30 367 1 135 884
M  V30 368 1 136 885
M  V30 369 1 136 886
M  V30 370 1 136 887
M  V30 371 1 137 138
M  V30 372 1 137 888
M  V30 373 1 138 889
M  V30 374 1 139 140
M  V30 375 2 139 149
M  V30 376 2 140 141
M  V30 377 1 140 890
M  V30 378 1 141 142
M  V30 379 1 141 891
M  V30 380 1 142 143
M  V30 381 2 142 148
M  V30 382 1 143 144
M  V30 383 1 143 892
M  V30 384 1 143 893
M  V30 385 1 144 145
M  V30 386 1 144 146
M  V30 387 1 144 147
M  V30 388 1 145 894
M  V30 389 1 145 895
M  V30 390 1 145 896
M  V30 391 1 146 897
M  V30 392 1 146 898
M  V30 393 1 146 899
M  V30 394 1 147 900
M  V30 395 1 147 901
M  V30 396 1 147 902
M  V30 397 1 148 149
M  V30 398 1 148 903
M  V30 399 1 149 904
M  V30 400 1 150 151
M  V30 401 2 150 160
M  V30 402 2 151 152
M  V30 403 1 151 905
M  V30 404 1 152 153
M  V30 405 1 152 906
M  V30 406 1 153 154
M  V30 407 2 153 159
M  V30 408 1 154 155
M  V30 409 1 154 907
M  V30 410 1 154 908
M  V30 411 1 155 156
M  V30 412 1 155 157
M  V30 413 1 155 158
M  V30 414 1 156 909
M  V30 415 1 156 910
M  V30 416 1 156 911
M  V30 417 1 157 912
M  V30 418 1 157 913
M  V30 419 1 157 914
M  V30 420 1 158 915
M  V30 421 1 158 916
M  V30 422 1 158 917
M  V30 423 1 159 160
M  V30 424 1 159 918
M  V30 425 1 160 919
M  V30 426 1 161 162
M  V30 427 2 161 171
M  V30 428 2 162 163
M  V30 429 1 162 920
M  V30 430 1 163 164
M  V30 431 1 163 921
M  V30 432 1 164 165
M  V30 433 2 164 170
M  V30 434 1 165 166
M  V30 435 1 165 922
M  V30 436 1 165 923
M  V30 437 1 166 167
M  V30 438 1 166 168
M  V30 439 1 166 169
M  V30 440 1 167 924
M  V30 441 1 167 925
M  V30 442 1 167 926
M  V30 443 1 168 927
M  V30 444 1 168 928
M  V30 445 1 168 929
M  V30 446 1 169 930
M  V30 447 1 169 931
M  V30 448 1 169 932
M  V30 449 1 170 171
M  V30 450 1 170 933
M  V30 451 1 171 934
M  V30 452 1 172 173
M  V30 453 2 172 182
M  V30 454 2 173 174
M  V30 455 1 173 935
M  V30 456 1 174 175
M  V30 457 1 174 936
M  V30 458 1 175 176
M  V30 459 2 175 181
M  V30 460 1 176 177
M  V30 461 1 176 937
M  V30 462 1 176 938
M  V30 463 1 177 178
M  V30 464 1 177 179
M  V30 465 1 177 180
M  V30 466 1 178 939
M  V30 467 1 178 940
M  V30 468 1 178 941
M  V30 469 1 179 942
M  V30 470 1 179 943
M  V30 471 1 179 944
M  V30 472 1 180 945
M  V30 473 1 180 946
M  V30 474 1 180 947
M  V30 475 1 181 182
M  V30 476 1 181 948
M  V30 477 1 182 949
M  V30 478 1 183 184
M  V30 479 2 183 193
M  V30 480 2 184 185
M  V30 481 1 184 950
M  V30 482 1 185 186
M  V30 483 1 185 951
M  V30 484 1 186 187
M  V30 485 2 186 192
M  V30 486 1 187 188
M  V30 487 1 187 952
M  V30 488 1 187 953
M  V30 489 1 188 189
M  V30 490 1 188 190
M  V30 491 1 188 191
M  V30 492 1 189 954
M  V30 493 1 189 955
M  V30 494 1 189 956
M  V30 495 1 190 957
M  V30 496 1 190 958
M  V30 497 1 190 959
M  V30 498 1 191 960
M  V30 499 1 191 961
M  V30 500 1 191 962
M  V30 501 1 192 193
M  V30 502 1 192 963
M  V30 503 1 193 964
M  V30 504 1 194 195
M  V30 505 2 194 204
M  V30 506 2 195 196
M  V30 507 1 195 965
M  V30 508 1 196 197
M  V30 509 1 196 966
M  V30 510 1 197 198
M  V30 511 2 197 203
M  V30 512 1 198 199
M  V30 513 1 198 967
M  V30 514 1 198 968
M  V30 515 1 199 200
M  V30 516 1 199 201
M  V30 517 1 199 202
M  V30 518 1 200 969
M  V30 519 1 200 970
M  V30 520 1 200 971
M  V30 521 1 201 972
M  V30 522 1 201 973
M  V30 523 1 201 974
M  V30 524 1 202 975
M  V30 525 1 202 976
M  V30 526 1 202 977
M  V30 527 1 203 204
M  V30 528 1 203 978
M  V30 529 1 204 979
M  V30 530 1 205 206
M  V30 531 2 205 546
M  V30 532 2 206 207
M  V30 533 1 206 980
M  V30 534 1 207 208
M  V30 535 1 207 981
M  V30 536 1 208 209
M  V30 537 2 208 545
M  V30 538 1 209 210
M  V30 539 1 209 365
M  V30 540 1 209 534
M  V30 541 1 210 211
M  V30 542 1 210 982
M  V30 543 1 210 983
M  V30 544 1 211 212
M  V30 545 1 211 984
M  V30 546 1 211 985
M  V30 547 1 212 213
M  V30 548 1 212 354
M  V30 549 1 212 986
M  V30 550 1 213 214
M  V30 551 1 213 987
M  V30 552 1 213 988
M  V30 553 1 214 215
M  V30 554 1 214 989
M  V30 555 1 214 990
M  V30 556 1 215 216
M  V30 557 1 215 343
M  V30 558 1 215 991
M  V30 559 1 216 217
M  V30 560 1 216 992
M  V30 561 1 216 993
M  V30 562 1 217 218
M  V30 563 1 217 994
M  V30 564 1 217 995
M  V30 565 1 218 219
M  V30 566 1 218 332
M  V30 567 1 218 996
M  V30 568 1 219 220
M  V30 569 1 219 997
M  V30 570 1 219 998
M  V30 571 1 220 221
M  V30 572 1 220 999
M  V30 573 1 220 1000
M  V30 574 1 221 222
M  V30 575 1 221 321
M  V30 576 1 221 1001
M  V30 577 1 222 223
M  V30 578 1 222 1002
M  V30 579 1 222 1003
M  V30 580 1 223 224
M  V30 581 1 223 1004
M  V30 582 1 223 1005
M  V30 583 1 224 225
M  V30 584 1 224 310
M  V30 585 1 224 1006
M  V30 586 1 225 226
M  V30 587 1 225 1007
M  V30 588 1 225 1008
M  V30 589 1 226 227
M  V30 590 1 226 1009
M  V30 591 1 226 1010
M  V30 592 1 227 228
M  V30 593 1 227 299
M  V30 594 1 227 1011
M  V30 595 1 228 229
M  V30 596 1 228 1012
M  V30 597 1 228 1013
M  V30 598 1 229 230
M  V30 599 1 229 1014
M  V30 600 1 229 1015
M  V30 601 1 230 231
M  V30 602 1 230 288
M  V30 603 1 230 1016
M  V30 604 1 231 232
M  V30 605 1 231 1017
M  V30 606 1 231 1018
M  V30 607 1 232 233
M  V30 608 1 232 1019
M  V30 609 1 232 1020
M  V30 610 1 233 234
M  V30 611 1 233 277
M  V30 612 1 233 1021
M  V30 613 1 234 235
M  V30 614 1 234 1022
M  V30 615 1 234 1023
M  V30 616 1 235 236
M  V30 617 1 235 1024
M  V30 618 1 235 1025
M  V30 619 1 236 237
M  V30 620 1 236 266
M  V30 621 1 236 1026
M  V30 622 1 237 238
M  V30 623 1 237 1027
M  V30 624 1 237 1028
M  V30 625 1 238 239
M  V30 626 1 238 1029
M  V30 627 1 238 1030
M  V30 628 1 239 240
M  V30 629 1 239 255
M  V30 630 1 239 1031
M  V30 631 1 240 241
M  V30 632 1 240 1032
M  V30 633 1 240 1033
M  V30 634 1 241 242
M  V30 635 1 241 1034
M  V30 636 1 241 1035
M  V30 637 1 242 243
M  V30 638 1 242 244
M  V30 639 1 242 1036
M  V30 640 1 243 1037
M  V30 641 1 243 1038
M  V30 642 1 243 1039
M  V30 643 1 244 245
M  V30 644 2 244 254
M  V30 645 2 245 246
M  V30 646 1 245 1040
M  V30 647 1 246 247
M  V30 648 1 246 1041
M  V30 649 1 247 248
M  V30 650 2 247 253
M  V30 651 1 248 249
M  V30 652 1 248 1042
M  V30 653 1 248 1043
M  V30 654 1 249 250
M  V30 655 1 249 251
M  V30 656 1 249 252
M  V30 657 1 250 1044
M  V30 658 1 250 1045
M  V30 659 1 250 1046
M  V30 660 1 251 1047
M  V30 661 1 251 1048
M  V30 662 1 251 1049
M  V30 663 1 252 1050
M  V30 664 1 252 1051
M  V30 665 1 252 1052
M  V30 666 1 253 254
M  V30 667 1 253 1053
M  V30 668 1 254 1054
M  V30 669 1 255 256
M  V30 670 2 255 265
M  V30 671 2 256 257
M  V30 672 1 256 1055
M  V30 673 1 257 258
M  V30 674 1 257 1056
M  V30 675 1 258 259
M  V30 676 2 258 264
M  V30 677 1 259 260
M  V30 678 1 259 1057
M  V30 679 1 259 1058
M  V30 680 1 260 261
M  V30 681 1 260 262
M  V30 682 1 260 263
M  V30 683 1 261 1059
M  V30 684 1 261 1060
M  V30 685 1 261 1061
M  V30 686 1 262 1062
M  V30 687 1 262 1063
M  V30 688 1 262 1064
M  V30 689 1 263 1065
M  V30 690 1 263 1066
M  V30 691 1 263 1067
M  V30 692 1 264 265
M  V30 693 1 264 1068
M  V30 694 1 265 1069
M  V30 695 1 266 267
M  V30 696 2 266 276
M  V30 697 2 267 268
M  V30 698 1 267 1070
M  V30 699 1 268 269
M  V30 700 1 268 1071
M  V30 701 1 269 270
M  V30 702 2 269 275
M  V30 703 1 270 271
M  V30 704 1 270 1072
M  V30 705 1 270 1073
M  V30 706 1 271 272
M  V30 707 1 271 273
M  V30 708 1 271 274
M  V30 709 1 272 1074
M  V30 710 1 272 1075
M  V30 711 1 272 1076
M  V30 712 1 273 1077
M  V30 713 1 273 1078
M  V30 714 1 273 1079
M  V30 715 1 274 1080
M  V30 716 1 274 1081
M  V30 717 1 274 1082
M  V30 718 1 275 276
M  V30 719 1 275 1083
M  V30 720 1 276 1084
M  V30 721 1 277 278
M  V30 722 2 277 287
M  V30 723 2 278 279
M  V30 724 1 278 1085
M  V30 725 1 279 280
M  V30 726 1 279 1086
M  V30 727 1 280 281
M  V30 728 2 280 286
M  V30 729 1 281 282
M  V30 730 1 281 1087
M  V30 731 1 281 1088
M  V30 732 1 282 283
M  V30 733 1 282 284
M  V30 734 1 282 285
M  V30 735 1 283 1089
M  V30 736 1 283 1090
M  V30 737 1 283 1091
M  V30 738 1 284 1092
M  V30 739 1 284 1093
M  V30 740 1 284 1094
M  V30 741 1 285 1095
M  V30 742 1 285 1096
M  V30 743 1 285 1097
M  V30 744 1 286 287
M  V30 745 1 286 1098
M  V30 746 1 287 1099
M  V30 747 1 288 289
M  V30 748 2 288 298
M  V30 749 2 289 290
M  V30 750 1 289 1100
M  V30 751 1 290 291
M  V30 752 1 290 1101
M  V30 753 1 291 292
M  V30 754 2 291 297
M  V30 755 1 292 293
M  V30 756 1 292 1102
M  V30 757 1 292 1103
M  V30 758 1 293 294
M  V30 759 1 293 295
M  V30 760 1 293 296
M  V30 761 1 294 1104
M  V30 762 1 294 1105
M  V30 763 1 294 1106
M  V30 764 1 295 1107
M  V30 765 1 295 1108
M  V30 766 1 295 1109
M  V30 767 1 296 1110
M  V30 768 1 296 1111
M  V30 769 1 296 1112
M  V30 770 1 297 298
M  V30 771 1 297 1113
M  V30 772 1 298 1114
M  V30 773 1 299 300
M  V30 774 2 299 309
M  V30 775 2 300 301
M  V30 776 1 300 1115
M  V30 777 1 301 302
M  V30 778 1 301 1116
M  V30 779 1 302 303
M  V30 780 2 302 308
M  V30 781 1 303 304
M  V30 782 1 303 1117
M  V30 783 1 303 1118
M  V30 784 1 304 305
M  V30 785 1 304 306
M  V30 786 1 304 307
M  V30 787 1 305 1119
M  V30 788 1 305 1120
M  V30 789 1 305 1121
M  V30 790 1 306 1122
M  V30 791 1 306 1123
M  V30 792 1 306 1124
M  V30 793 1 307 1125
M  V30 794 1 307 1126
M  V30 795 1 307 1127
M  V30 796 1 308 309
M  V30 797 1 308 1128
M  V30 798 1 309 1129
M  V30 799 1 310 311
M  V30 800 2 310 320
M  V30 801 2 311 312
M  V30 802 1 311 1130
M  V30 803 1 312 313
M  V30 804 1 312 1131
M  V30 805 1 313 314
M  V30 806 2 313 319
M  V30 807 1 314 315
M  V30 808 1 314 1132
M  V30 809 1 314 1133
M  V30 810 1 315 316
M  V30 811 1 315 317
M  V30 812 1 315 318
M  V30 813 1 316 1134
M  V30 814 1 316 1135
M  V30 815 1 316 1136
M  V30 816 1 317 1137
M  V30 817 1 317 1138
M  V30 818 1 317 1139
M  V30 819 1 318 1140
M  V30 820 1 318 1141
M  V30 821 1 318 1142
M  V30 822 1 319 320
M  V30 823 1 319 1143
M  V30 824 1 320 1144
M  V30 825 1 321 322
M  V30 826 2 321 331
M  V30 827 2 322 323
M  V30 828 1 322 1145
M  V30 829 1 323 324
M  V30 830 1 323 1146
M  V30 831 1 324 325
M  V30 832 2 324 330
M  V30 833 1 325 326
M  V30 834 1 325 1147
M  V30 835 1 325 1148
M  V30 836 1 326 327
M  V30 837 1 326 328
M  V30 838 1 326 329
M  V30 839 1 327 1149
M  V30 840 1 327 1150
M  V30 841 1 327 1151
M  V30 842 1 328 1152
M  V30 843 1 328 1153
M  V30 844 1 328 1154
M  V30 845 1 329 1155
M  V30 846 1 329 1156
M  V30 847 1 329 1157
M  V30 848 1 330 331
M  V30 849 1 330 1158
M  V30 850 1 331 1159
M  V30 851 1 332 333
M  V30 852 2 332 342
M  V30 853 2 333 334
M  V30 854 1 333 1160
M  V30 855 1 334 335
M  V30 856 1 334 1161
M  V30 857 1 335 336
M  V30 858 2 335 341
M  V30 859 1 336 337
M  V30 860 1 336 1162
M  V30 861 1 336 1163
M  V30 862 1 337 338
M  V30 863 1 337 339
M  V30 864 1 337 340
M  V30 865 1 338 1164
M  V30 866 1 338 1165
M  V30 867 1 338 1166
M  V30 868 1 339 1167
M  V30 869 1 339 1168
M  V30 870 1 339 1169
M  V30 871 1 340 1170
M  V30 872 1 340 1171
M  V30 873 1 340 1172
M  V30 874 1 341 342
M  V30 875 1 341 1173
M  V30 876 1 342 1174
M  V30 877 1 343 344
M  V30 878 2 343 353
M  V30 879 2 344 345
M  V30 880 1 344 1175
M  V30 881 1 345 346
M  V30 882 1 345 1176
M  V30 883 1 346 347
M  V30 884 2 346 352
M  V30 885 1 347 348
M  V30 886 1 347 1177
M  V30 887 1 347 1178
M  V30 888 1 348 349
M  V30 889 1 348 350
M  V30 890 1 348 351
M  V30 891 1 349 1179
M  V30 892 1 349 1180
M  V30 893 1 349 1181
M  V30 894 1 350 1182
M  V30 895 1 350 1183
M  V30 896 1 350 1184
M  V30 897 1 351 1185
M  V30 898 1 351 1186
M  V30 899 1 351 1187
M  V30 900 1 352 353
M  V30 901 1 352 1188
M  V30 902 1 353 1189
M  V30 903 1 354 355
M  V30 904 2 354 364
M  V30 905 2 355 356
M  V30 906 1 355 1190
M  V30 907 1 356 357
M  V30 908 1 356 1191
M  V30 909 1 357 358
M  V30 910 2 357 363
M  V30 911 1 358 359
M  V30 912 1 358 1192
M  V30 913 1 358 1193
M  V30 914 1 359 360
M  V30 915 1 359 361
M  V30 916 1 359 362
M  V30 917 1 360 1194
M  V30 918 1 360 1195
M  V30 919 1 360 1196
M  V30 920 1 361 1197
M  V30 921 1 361 1198
M  V30 922 1 361 1199
M  V30 923 1 362 1200
M  V30 924 1 362 1201
M  V30 925 1 362 1202
M  V30 926 1 363 364
M  V30 927 1 363 1203
M  V30 928 1 364 1204
M  V30 929 1 365 366
M  V30 930 1 365 1205
M  V30 931 1 365 1206
M  V30 932 1 366 367
M  V30 933 1 366 1207
M  V30 934 1 366 1208
M  V30 935 1 367 368
M  V30 936 1 367 523
M  V30 937 1 367 1209
M  V30 938 1 368 369
M  V30 939 1 368 1210
M  V30 940 1 368 1211
M  V30 941 1 369 370
M  V30 942 1 369 1212
M  V30 943 1 369 1213
M  V30 944 1 370 371
M  V30 945 1 370 512
M  V30 946 1 370 1214
M  V30 947 1 371 372
M  V30 948 1 371 1215
M  V30 949 1 371 1216
M  V30 950 1 372 373
M  V30 951 1 372 1217
M  V30 952 1 372 1218
M  V30 953 1 373 374
M  V30 954 1 373 501
M  V30 955 1 373 1219
M  V30 956 1 374 375
M  V30 957 1 374 1220
M  V30 958 1 374 1221
M  V30 959 1 375 376
M  V30 960 1 375 1222
M  V30 961 1 375 1223
M  V30 962 1 376 377
M  V30 963 1 376 490
M  V30 964 1 376 1224
M  V30 965 1 377 378
M  V30 966 1 377 1225
M  V30 967 1 377 1226
M  V30 968 1 378 379
M  V30 969 1 378 1227
M  V30 970 1 378 1228
M  V30 971 1 379 380
M  V30 972 1 379 479
M  V30 973 1 379 1229
M  V30 974 1 380 381
M  V30 975 1 380 1230
M  V30 976 1 380 1231
M  V30 977 1 381 382
M  V30 978 1 381 1232
M  V30 979 1 381 1233
M  V30 980 1 382 383
M  V30 981 1 382 468
M  V30 982 1 382 1234
M  V30 983 1 383 384
M  V30 984 1 383 1235
M  V30 985 1 383 1236
M  V30 986 1 384 385
M  V30 987 1 384 1237
M  V30 988 1 384 1238
M  V30 989 1 385 386
M  V30 990 1 385 457
M  V30 991 1 385 1239
M  V30 992 1 386 387
M  V30 993 1 386 1240
M  V30 994 1 386 1241
M  V30 995 1 387 388
M  V30 996 1 387 1242
M  V30 997 1 387 1243
M  V30 998 1 388 389
M  V30 999 1 388 446
M  V30 1000 1 388 1244
M  V30 1001 1 389 390
M  V30 1002 1 389 1245
M  V30 1003 1 389 1246
M  V30 1004 1 390 391
M  V30 1005 1 390 1247
M  V30 1006 1 390 1248
M  V30 1007 1 391 392
M  V30 1008 1 391 435
M  V30 1009 1 391 1249
M  V30 1010 1 392 393
M  V30 1011 1 392 1250
M  V30 1012 1 392 1251
M  V30 1013 1 393 394
M  V30 1014 1 393 1252
M  V30 1015 1 393 1253
M  V30 1016 1 394 395
M  V30 1017 1 394 424
M  V30 1018 1 394 1254
M  V30 1019 1 395 396
M  V30 1020 1 395 1255
M  V30 1021 1 395 1256
M  V30 1022 1 396 397
M  V30 1023 1 396 1257
M  V30 1024 1 396 1258
M  V30 1025 1 397 398
M  V30 1026 1 397 413
M  V30 1027 1 397 1259
M  V30 1028 1 398 399
M  V30 1029 1 398 1260
M  V30 1030 1 398 1261
M  V30 1031 1 399 400
M  V30 1032 1 399 1262
M  V30 1033 1 399 1263
M  V30 1034 1 400 401
M  V30 1035 1 400 402
M  V30 1036 1 400 1264
M  V30 1037 1 401 1265
M  V30 1038 1 401 1266
M  V30 1039 1 401 1267
M  V30 1040 1 402 403
M  V30 1041 2 402 412
M  V30 1042 2 403 404
M  V30 1043 1 403 1268
M  V30 1044 1 404 405
M  V30 1045 1 404 1269
M  V30 1046 1 405 406
M  V30 1047 2 405 411
M  V30 1048 1 406 407
M  V30 1049 1 406 1270
M  V30 1050 1 406 1271
M  V30 1051 1 407 408
M  V30 1052 1 407 409
M  V30 1053 1 407 410
M  V30 1054 1 408 1272
M  V30 1055 1 408 1273
M  V30 1056 1 408 1274
M  V30 1057 1 409 1275
M  V30 1058 1 409 1276
M  V30 1059 1 409 1277
M  V30 1060 1 410 1278
M  V30 1061 1 410 1279
M  V30 1062 1 410 1280
M  V30 1063 1 411 412
M  V30 1064 1 411 1281
M  V30 1065 1 412 1282
M  V30 1066 1 413 414
M  V30 1067 2 413 423
M  V30 1068 2 414 415
M  V30 1069 1 414 1283
M  V30 1070 1 415 416
M  V30 1071 1 415 1284
M  V30 1072 1 416 417
M  V30 1073 2 416 422
M  V30 1074 1 417 418
M  V30 1075 1 417 1285
M  V30 1076 1 417 1286
M  V30 1077 1 418 419
M  V30 1078 1 418 420
M  V30 1079 1 418 421
M  V30 1080 1 419 1287
M  V30 1081 1 419 1288
M  V30 1082 1 419 1289
M  V30 1083 1 420 1290
M  V30 1084 1 420 1291
M  V30 1085 1 420 1292
M  V30 1086 1 421 1293
M  V30 1087 1 421 1294
M  V30 1088 1 421 1295
M  V30 1089 1 422 423
M  V30 1090 1 422 1296
M  V30 1091 1 423 1297
M  V30 1092 1 424 425
M  V30 1093 2 424 434
M  V30 1094 2 425 426
M  V30 1095 1 425 1298
M  V30 1096 1 426 427
M  V30 1097 1 426 1299
M  V30 1098 1 427 428
M  V30 1099 2 427 433
M  V30 1100 1 428 429
M  V30 1101 1 428 1300
M  V30 1102 1 428 1301
M  V30 1103 1 429 430
M  V30 1104 1 429 431
M  V30 1105 1 429 432
M  V30 1106 1 430 1302
M  V30 1107 1 430 1303
M  V30 1108 1 430 1304
M  V30 1109 1 431 1305
M  V30 1110 1 431 1306
M  V30 1111 1 431 1307
M  V30 1112 1 432 1308
M  V30 1113 1 432 1309
M  V30 1114 1 432 1310
M  V30 1115 1 433 434
M  V30 1116 1 433 1311
M  V30 1117 1 434 1312
M  V30 1118 1 435 436
M  V30 1119 2 435 445
M  V30 1120 2 436 437
M  V30 1121 1 436 1313
M  V30 1122 1 437 438
M  V30 1123 1 437 1314
M  V30 1124 1 438 439
M  V30 1125 2 438 444
M  V30 1126 1 439 440
M  V30 1127 1 439 1315
M  V30 1128 1 439 1316
M  V30 1129 1 440 441
M  V30 1130 1 440 442
M  V30 1131 1 440 443
M  V30 1132 1 441 1317
M  V30 1133 1 441 1318
M  V30 1134 1 441 1319
M  V30 1135 1 442 1320
M  V30 1136 1 442 1321
M  V30 1137 1 442 1322
M  V30 1138 1 443 1323
M  V30 1139 1 443 1324
M  V30 1140 1 443 1325
M  V30 1141 1 444 445
M  V30 1142 1 444 1326
M  V30 1143 1 445 1327
M  V30 1144 1 446 447
M  V30 1145 2 446 456
M  V30 1146 2 447 448
M  V30 1147 1 447 1328
M  V30 1148 1 448 449
M  V30 1149 1 448 1329
M  V30 1150 1 449 450
M  V30 1151 2 449 455
M  V30 1152 1 450 451
M  V30 1153 1 450 1330
M  V30 1154 1 450 1331
M  V30 1155 1 451 452
M  V30 1156 1 451 453
M  V30 1157 1 451 454
M  V30 1158 1 452 1332
M  V30 1159 1 452 1333
M  V30 1160 1 452 1334
M  V30 1161 1 453 1335
M  V30 1162 1 453 1336
M  V30 1163 1 453 1337
M  V30 1164 1 454 1338
M  V30 1165 1 454 1339
M  V30 1166 1 454 1340
M  V30 1167 1 455 456
M  V30 1168 1 455 1341
M  V30 1169 1 456 1342
M  V30 1170 1 457 458
M  V30 1171 2 457 467
M  V30 1172 2 458 459
M  V30 1173 1 458 1343
M  V30 1174 1 459 460
M  V30 1175 1 459 1344
M  V30 1176 1 460 461
M  V30 1177 2 460 466
M  V30 1178 1 461 462
M  V30 1179 1 461 1345
M  V30 1180 1 461 1346
M  V30 1181 1 462 463
M  V30 1182 1 462 464
M  V30 1183 1 462 465
M  V30 1184 1 463 1347
M  V30 1185 1 463 1348
M  V30 1186 1 463 1349
M  V30 1187 1 464 1350
M  V30 1188 1 464 1351
M  V30 1189 1 464 1352
M  V30 1190 1 465 1353
M  V30 1191 1 465 1354
M  V30 1192 1 465 1355
M  V30 1193 1 466 467
M  V30 1194 1 466 1356
M  V30 1195 1 467 1357
M  V30 1196 1 468 469
M  V30 1197 2 468 478
M  V30 1198 2 469 470
M  V30 1199 1 469 1358
M  V30 1200 1 470 471
M  V30 1201 1 470 1359
M  V30 1202 1 471 472
M  V30 1203 2 471 477
M  V30 1204 1 472 473
M  V30 1205 1 472 1360
M  V30 1206 1 472 1361
M  V30 1207 1 473 474
M  V30 1208 1 473 475
M  V30 1209 1 473 476
M  V30 1210 1 474 1362
M  V30 1211 1 474 1363
M  V30 1212 1 474 1364
M  V30 1213 1 475 1365
M  V30 1214 1 475 1366
M  V30 1215 1 475 1367
M  V30 1216 1 476 1368
M  V30 1217 1 476 1369
M  V30 1218 1 476 1370
M  V30 1219 1 477 478
M  V30 1220 1 477 1371
M  V30 1221 1 478 1372
M  V30 1222 1 479 480
M  V30 1223 2 479 489
M  V30 1224 2 480 481
M  V30 1225 1 480 1373
M  V30 1226 1 481 482
M  V30 1227 1 481 1374
M  V30 1228 1 482 483
M  V30 1229 2 482 488
M  V30 1230 1 483 484
M  V30 1231 1 483 1375
M  V30 1232 1 483 1376
M  V30 1233 1 484 485
M  V30 1234 1 484 486
M  V30 1235 1 484 487
M  V30 1236 1 485 1377
M  V30 1237 1 485 1378
M  V30 1238 1 485 1379
M  V30 1239 1 486 1380
M  V30 1240 1 486 1381
M  V30 1241 1 486 1382
M  V30 1242 1 487 1383
M  V30 1243 1 487 1384
M  V30 1244 1 487 1385
M  V30 1245 1 488 489
M  V30 1246 1 488 1386
M  V30 1247 1 489 1387
M  V30 1248 1 490 491
M  V30 1249 2 490 500
M  V30 1250 2 491 492
M  V30 1251 1 491 1388
M  V30 1252 1 492 493
M  V30 1253 1 492 1389
M  V30 1254 1 493 494
M  V30 1255 2 493 499
M  V30 1256 1 494 495
M  V30 1257 1 494 1390
M  V30 1258 1 494 1391
M  V30 1259 1 495 496
M  V30 1260 1 495 497
M  V30 1261 1 495 498
M  V30 1262 1 496 1392
M  V30 1263 1 496 1393
M  V30 1264 1 496 1394
M  V30 1265 1 497 1395
M  V30 1266 1 497 1396
M  V30 1267 1 497 1397
M  V30 1268 1 498 1398
M  V30 1269 1 498 1399
M  V30 1270 1 498 1400
M  V30 1271 1 499 500
M  V30 1272 1 499 1401
M  V30 1273 1 500 1402
M  V30 1274 1 501 502
M  V30 1275 2 501 511
M  V30 1276 2 502 503
M  V30 1277 1 502 1403
M  V30 1278 1 503 504
M  V30 1279 1 503 1404
M  V30 1280 1 504 505
M  V30 1281 2 504 510
M  V30 1282 1 505 506
M  V30 1283 1 505 1405
M  V30 1284 1 505 1406
M  V30 1285 1 506 507
M  V30 1286 1 506 508
M  V30 1287 1 506 509
M  V30 1288 1 507 1407
M  V30 1289 1 507 1408
M  V30 1290 1 507 1409
M  V30 1291 1 508 1410
M  V30 1292 1 508 1411
M  V30 1293 1 508 1412
M  V30 1294 1 509 1413
M  V30 1295 1 509 1414
M  V30 1296 1 509 1415
M  V30 1297 1 510 511
M  V30 1298 1 510 1416
M  V30 1299 1 511 1417
M  V30 1300 1 512 513
M  V30 1301 2 512 522
M  V30 1302 2 513 514
M  V30 1303 1 513 1418
M  V30 1304 1 514 515
M  V30 1305 1 514 1419
M  V30 1306 1 515 516
M  V30 1307 2 515 521
M  V30 1308 1 516 517
M  V30 1309 1 516 1420
M  V30 1310 1 516 1421
M  V30 1311 1 517 518
M  V30 1312 1 517 519
M  V30 1313 1 517 520
M  V30 1314 1 518 1422
M  V30 1315 1 518 1423
M  V30 1316 1 518 1424
M  V30 1317 1 519 1425
M  V30 1318 1 519 1426
M  V30 1319 1 519 1427
M  V30 1320 1 520 1428
M  V30 1321 1 520 1429
M  V30 1322 1 520 1430
M  V30 1323 1 521 522
M  V30 1324 1 521 1431
M  V30 1325 1 522 1432
M  V30 1326 1 523 524
M  V30 1327 2 523 533
M  V30 1328 2 524 525
M  V30 1329 1 524 1433
M  V30 1330 1 525 526
M  V30 1331 1 525 1434
M  V30 1332 1 526 527
M  V30 1333 2 526 532
M  V30 1334 1 527 528
M  V30 1335 1 527 1435
M  V30 1336 1 527 1436
M  V30 1337 1 528 529
M  V30 1338 1 528 530
M  V30 1339 1 528 531
M  V30 1340 1 529 1437
M  V30 1341 1 529 1438
M  V30 1342 1 529 1439
M  V30 1343 1 530 1440
M  V30 1344 1 530 1441
M  V30 1345 1 530 1442
M  V30 1346 1 531 1443
M  V30 1347 1 531 1444
M  V30 1348 1 531 1445
M  V30 1349 1 532 533
M  V30 1350 1 532 1446
M  V30 1351 1 533 1447
M  V30 1352 1 534 535
M  V30 1353 2 534 544
M  V30 1354 2 535 536
M  V30 1355 1 535 1448
M  V30 1356 1 536 537
M  V30 1357 1 536 1449
M  V30 1358 1 537 538
M  V30 1359 2 537 543
M  V30 1360 1 538 539
M  V30 1361 1 538 1450
M  V30 1362 1 538 1451
M  V30 1363 1 539 540
M  V30 1364 1 539 541
M  V30 1365 1 539 542
M  V30 1366 1 540 1452
M  V30 1367 1 540 1453
M  V30 1368 1 540 1454
M  V30 1369 1 541 1455
M  V30 1370 1 541 1456
M  V30 1371 1 541 1457
M  V30 1372 1 542 1458
M  V30 1373 1 542 1459
M  V30 1374 1 542 1460
M  V30 1375 1 543 544
M  V30 1376 1 543 1461
M  V30 1377 1 544 1462
M  V30 1378 1 545 546
M  V30 1379 1 545 1463
M  V30 1380 1 546 1464
M  V30 1381 1 547 548
M  V30 1382 2 547 557
M  V30 1383 2 548 549
M  V30 1384 1 548 1465
M  V30 1385 1 549 550
M  V30 1386 1 549 1466
M  V30 1387 1 550 551
M  V30 1388 2 550 556
M  V30 1389 1 551 552
M  V30 1390 1 551 1467
M  V30 1391 1 551 1468
M  V30 1392 1 552 553
M  V30 1393 1 552 554
M  V30 1394 1 552 555
M  V30 1395 1 553 1469
M  V30 1396 1 553 1470
M  V30 1397 1 553 1471
M  V30 1398 1 554 1472
M  V30 1399 1 554 1473
M  V30 1400 1 554 1474
M  V30 1401 1 555 1475
M  V30 1402 1 555 1476
M  V30 1403 1 555 1477
M  V30 1404 1 556 557
M  V30 1405 1 556 1478
M  V30 1406 1 557 1479
M  V30 1407 1 558 559
M  V30 1408 2 558 568
M  V30 1409 2 559 560
M  V30 1410 1 559 1480
M  V30 1411 1 560 561
M  V30 1412 1 560 1481
M  V30 1413 1 561 562
M  V30 1414 2 561 567
M  V30 1415 1 562 563
M  V30 1416 1 562 1482
M  V30 1417 1 562 1483
M  V30 1418 1 563 564
M  V30 1419 1 563 565
M  V30 1420 1 563 566
M  V30 1421 1 564 1484
M  V30 1422 1 564 1485
M  V30 1423 1 564 1486
M  V30 1424 1 565 1487
M  V30 1425 1 565 1488
M  V30 1426 1 565 1489
M  V30 1427 1 566 1490
M  V30 1428 1 566 1491
M  V30 1429 1 566 1492
M  V30 1430 1 567 568
M  V30 1431 1 567 1493
M  V30 1432 1 568 1494
M  V30 1433 1 569 570
M  V30 1434 2 569 579
M  V30 1435 2 570 571
M  V30 1436 1 570 1495
M  V30 1437 1 571 572
M  V30 1438 1 571 1496
M  V30 1439 1 572 573
M  V30 1440 2 572 578
M  V30 1441 1 573 574
M  V30 1442 1 573 1497
M  V30 1443 1 573 1498
M  V30 1444 1 574 575
M  V30 1445 1 574 576
M  V30 1446 1 574 577
M  V30 1447 1 575 1499
M  V30 1448 1 575 1500
M  V30 1449 1 575 1501
M  V30 1450 1 576 1502
M  V30 1451 1 576 1503
M  V30 1452 1 576 1504
M  V30 1453 1 577 1505
M  V30 1454 1 577 1506
M  V30 1455 1 577 1507
M  V30 1456 1 578 579
M  V30 1457 1 578 1508
M  V30 1458 1 579 1509
M  V30 1459 1 580 581
M  V30 1460 2 580 590
M  V30 1461 2 581 582
M  V30 1462 1 581 1510
M  V30 1463 1 582 583
M  V30 1464 1 582 1511
M  V30 1465 1 583 584
M  V30 1466 2 583 589
M  V30 1467 1 584 585
M  V30 1468 1 584 1512
M  V30 1469 1 584 1513
M  V30 1470 1 585 586
M  V30 1471 1 585 587
M  V30 1472 1 585 588
M  V30 1473 1 586 1514
M  V30 1474 1 586 1515
M  V30 1475 1 586 1516
M  V30 1476 1 587 1517
M  V30 1477 1 587 1518
M  V30 1478 1 587 1519
M  V30 1479 1 588 1520
M  V30 1480 1 588 1521
M  V30 1481 1 588 1522
M  V30 1482 1 589 590
M  V30 1483 1 589 1523
M  V30 1484 1 590 1524
M  V30 1485 1 591 592
M  V30 1486 2 591 601
M  V30 1487 2 592 593
M  V30 1488 1 592 1525
M  V30 1489 1 593 594
M  V30 1490 1 593 1526
M  V30 1491 1 594 595
M  V30 1492 2 594 600
M  V30 1493 1 595 596
M  V30 1494 1 595 1527
M  V30 1495 1 595 1528
M  V30 1496 1 596 597
M  V30 1497 1 596 598
M  V30 1498 1 596 599
M  V30 1499 1 597 1529
M  V30 1500 1 597 1530
M  V30 1501 1 597 1531
M  V30 1502 1 598 1532
M  V30 1503 1 598 1533
M  V30 1504 1 598 1534
M  V30 1505 1 599 1535
M  V30 1506 1 599 1536
M  V30 1507 1 599 1537
M  V30 1508 1 600 601
M  V30 1509 1 600 1538
M  V30 1510 1 601 1539
M  V30 1511 1 602 603
M  V30 1512 2 602 612
M  V30 1513 2 603 604
M  V30 1514 1 603 1540
M  V30 1515 1 604 605
M  V30 1516 1 604 1541
M  V30 1517 1 605 606
M  V30 1518 2 605 611
M  V30 1519 1 606 607
M  V30 1520 1 606 1542
M  V30 1521 1 606 1543
M  V30 1522 1 607 608
M  V30 1523 1 607 609
M  V30 1524 1 607 610
M  V30 1525 1 608 1544
M  V30 1526 1 608 1545
M  V30 1527 1 608 1546
M  V30 1528 1 609 1547
M  V30 1529 1 609 1548
M  V30 1530 1 609 1549
M  V30 1531 1 610 1550
M  V30 1532 1 610 1551
M  V30 1533 1 610 1552
M  V30 1534 1 611 612
M  V30 1535 1 611 1553
M  V30 1536 1 612 1554
M  V30 1537 1 613 614
M  V30 1538 2 613 623
M  V30 1539 2 614 615
M  V30 1540 1 614 1555
M  V30 1541 1 615 616
M  V30 1542 1 615 1556
M  V30 1543 1 616 617
M  V30 1544 2 616 622
M  V30 1545 1 617 618
M  V30 1546 1 617 1557
M  V30 1547 1 617 1558
M  V30 1548 1 618 619
M  V30 1549 1 618 620
M  V30 1550 1 618 621
M  V30 1551 1 619 1559
M  V30 1552 1 619 1560
M  V30 1553 1 619 1561
M  V30 1554 1 620 1562
M  V30 1555 1 620 1563
M  V30 1556 1 620 1564
M  V30 1557 1 621 1565
M  V30 1558 1 621 1566
M  V30 1559 1 621 1567
M  V30 1560 1 622 623
M  V30 1561 1 622 1568
M  V30 1562 1 623 1569
M  V30 1563 1 624 625
M  V30 1564 2 624 634
M  V30 1565 2 625 626
M  V30 1566 1 625 1570
M  V30 1567 1 626 627
M  V30 1568 1 626 1571
M  V30 1569 1 627 628
M  V30 1570 2 627 633
M  V30 1571 1 628 629
M  V30 1572 1 628 1572
M  V30 1573 1 628 1573
M  V30 1574 1 629 630
M  V30 1575 1 629 631
M  V30 1576 1 629 632
M  V30 1577 1 630 1574
M  V30 1578 1 630 1575
M  V30 1579 1 630 1576
M  V30 1580 1 631 1577
M  V30 1581 1 631 1578
M  V30 1582 1 631 1579
M  V30 1583 1 632 1580
M  V30 1584 1 632 1581
M  V30 1585 1 632 1582
M  V30 1586 1 633 634
M  V30 1587 1 633 1583
M  V30 1588 1 634 1584
M  V30 1589 1 635 636
M  V30 1590 2 635 645
M  V30 1591 2 636 637
M  V30 1592 1 636 1585
M  V30 1593 1 637 638
M  V30 1594 1 637 1586
M  V30 1595 1 638 639
M  V30 1596 2 638 644
M  V30 1597 1 639 640
M  V30 1598 1 639 1587
M  V30 1599 1 639 1588
M  V30 1600 1 640 641
M  V30 1601 1 640 642
M  V30 1602 1 640 643
M  V30 1603 1 641 1589
M  V30 1604 1 641 1590
M  V30 1605 1 641 1591
M  V30 1606 1 642 1592
M  V30 1607 1 642 1593
M  V30 1608 1 642 1594
M  V30 1609 1 643 1595
M  V30 1610 1 643 1596
M  V30 1611 1 643 1597
M  V30 1612 1 644 645
M  V30 1613 1 644 1598
M  V30 1614 1 645 1599
M  V30 1615 1 646 647
M  V30 1616 2 646 656
M  V30 1617 2 647 648
M  V30 1618 1 647 1600
M  V30 1619 1 648 649
M  V30 1620 1 648 1601
M  V30 1621 1 649 650
M  V30 1622 2 649 655
M  V30 1623 1 650 651
M  V30 1624 1 650 1602
M  V30 1625 1 650 1603
M  V30 1626 1 651 652
M  V30 1627 1 651 653
M  V30 1628 1 651 654
M  V30 1629 1 652 1604
M  V30 1630 1 652 1605
M  V30 1631 1 652 1606
M  V30 1632 1 653 1607
M  V30 1633 1 653 1608
M  V30 1634 1 653 1609
M  V30 1635 1 654 1610
M  V30 1636 1 654 1611
M  V30 1637 1 654 1612
M  V30 1638 1 655 656
M  V30 1639 1 655 1613
M  V30 1640 1 656 1614
M  V30 1641 1 657 658
M  V30 1642 2 657 667
M  V30 1643 2 658 659
M  V30 1644 1 658 1615
M  V30 1645 1 659 660
M  V30 1646 1 659 1616
M  V30 1647 1 660 661
M  V30 1648 2 660 666
M  V30 1649 1 661 662
M  V30 1650 1 661 1617
M  V30 1651 1 661 1618
M  V30 1652 1 662 663
M  V30 1653 1 662 664
M  V30 1654 1 662 665
M  V30 1655 1 663 1619
M  V30 1656 1 663 1620
M  V30 1657 1 663 1621
M  V30 1658 1 664 1622
M  V30 1659 1 664 1623
M  V30 1660 1 664 1624
M  V30 1661 1 665 1625
M  V30 1662 1 665 1626
M  V30 1663 1 665 1627
M  V30 1664 1 666 667
M  V30 1665 1 666 1628
M  V30 1666 1 667 1629
M  V30 1667 1 668 669
M  V30 1668 2 668 678
M  V30 1669 2 669 670
M  V30 1670 1 669 1630
M  V30 1671 1 670 671
M  V30 1672 1 670 1631
M  V30 1673 1 671 672
M  V30 1674 2 671 677
M  V30 1675 1 672 673
M  V30 1676 1 672 1632
M  V30 1677 1 672 1633
M  V30 1678 1 673 674
M  V30 1679 1 673 675
M  V30 1680 1 673 676
M  V30 1681 1 674 1634
M  V30 1682 1 674 1635
M  V30 1683 1 674 1636
M  V30 1684 1 675 1637
M  V30 1685 1 675 1638
M  V30 1686 1 675 1639
M  V30 1687 1 676 1640
M  V30 1688 1 676 1641
M  V30 1689 1 676 1642
M  V30 1690 1 677 678
M  V30 1691 1 677 1643
M  V30 1692 1 678 1644
M  V30 END BOND
M  V30 END CTAB
M  END
>  <Energy>
12338.8

>  <Energy>
18461.2

$$$$
